BEGIN Configuration File: examples/dragonflyconfig
// $Id$

// Copyright (c) 2007-2015, Trustees of The Leland Stanford Junior University
// All rights reserved.
//
// Redistribution and use in source and binary forms, with or without
// modification, are permitted provided that the following conditions are met:
//
// Redistributions of source code must retain the above copyright notice, this
// list of conditions and the following disclaimer.
// Redistributions in binary form must reproduce the above copyright notice,
// this list of conditions and the following disclaimer in the documentation
// and/or other materials provided with the distribution.
//
// THIS SOFTWARE IS PROVIDED BY THE COPYRIGHT HOLDERS AND CONTRIBUTORS "AS IS"
// AND ANY EXPRESS OR IMPLIED WARRANTIES, INCLUDING, BUT NOT LIMITED TO, THE
// IMPLIED WARRANTIES OF MERCHANTABILITY AND FITNESS FOR A PARTICULAR PURPOSE
// ARE DISCLAIMED. IN NO EVENT SHALL THE COPYRIGHT OWNER OR CONTRIBUTORS BE
// LIABLE FOR ANY DIRECT, INDIRECT, INCIDENTAL, SPECIAL, EXEMPLARY, OR
// CONSEQUENTIAL DAMAGES (INCLUDING, BUT NOT LIMITED TO, PROCUREMENT OF
// SUBSTITUTE GOODS OR SERVICES; LOSS OF USE, DATA, OR PROFITS; OR BUSINESS
// INTERRUPTION) HOWEVER CAUSED AND ON ANY THEORY OF LIABILITY, WHETHER IN
// CONTRACT, STRICT LIABILITY, OR TORT (INCLUDING NEGLIGENCE OR OTHERWISE)
// ARISING IN ANY WAY OUT OF THE USE OF THIS SOFTWARE, EVEN IF ADVISED OF THE
// POSSIBILITY OF SUCH DAMAGE.

// Dragonfly
//




vc_buf_size = 256;


wait_for_tail_credit = 0;

//
// Router architecture
//
vc_allocator = separable_input_first; 
sw_allocator = separable_input_first;
alloc_iters  = 1;

credit_delay   = 2;
routing_delay  = 0;
vc_alloc_delay = 1;
sw_alloc_delay = 1;
st_final_delay = 1;

input_speedup     = 1;
output_speedup    = 1;
internal_speedup  = 2.0;


warmup_periods = 3;
sim_count          = 1;

sample_period  = 10000;  



routing_function = min;
num_vcs     = 2;

priority = none;
traffic       = uniform; 


packet_size = 10;
injection_rate_uses_flits=1;

topology = dragonflynew;

k  = 4;
n  = 1;

watch_out=-;

injection_rate =0.01;
stats_out = dragonfly_1.m;

END Configuration File: examples/dragonflyconfig
 Dragonfly 
 p = 4 n = 1
 each switch - total radix =  15
 # of switches = 264
 # of channels = 2904
 # of nodes ( size of network ) = 1056
 # of groups (_g) = 33
 # of routers per group (_a) = 8
Done links
Class 0:
Packet latency average = 134.006
	minimum = 14
	maximum = 154
Network latency average = 133.974
	minimum = 14
	maximum = 152
Slowest packet = 285
Flit latency average = 124.954
	minimum = 5
	maximum = 143
Slowest flit = 43730
Fragmentation average = 0.0401991
	minimum = 0
	maximum = 8
Injected packet rate average = 0.00100303
	minimum = 0.0002 (at node 646)
	maximum = 0.0021 (at node 222)
Accepted packet rate average = 0.000989394
	minimum = 0.0001 (at node 643)
	maximum = 0.0022 (at node 387)
Injected flit rate average = 0.0100272
	minimum = 0.002 (at node 646)
	maximum = 0.021 (at node 222)
Accepted flit rate average= 0.0099
	minimum = 0.001 (at node 643)
	maximum = 0.022 (at node 387)
Injected packet length average = 9.99688
Accepted packet length average = 10.0061
Total in-flight flits = 1376 (0 measured)
latency change    = 1
throughput change = 1
Class 0:
Packet latency average = 133.847
	minimum = 14
	maximum = 156
Network latency average = 133.808
	minimum = 14
	maximum = 156
Slowest packet = 13948
Flit latency average = 124.781
	minimum = 5
	maximum = 147
Slowest flit = 139488
Fragmentation average = 0.0478974
	minimum = 0
	maximum = 14
Injected packet rate average = 0.00100237
	minimum = 0.0004 (at node 101)
	maximum = 0.0018 (at node 253)
Accepted packet rate average = 0.000996449
	minimum = 0.0004 (at node 309)
	maximum = 0.00185 (at node 387)
Injected flit rate average = 0.0100221
	minimum = 0.004 (at node 101)
	maximum = 0.018 (at node 253)
Accepted flit rate average= 0.00996558
	minimum = 0.004 (at node 309)
	maximum = 0.0185 (at node 387)
Injected packet length average = 9.99844
Accepted packet length average = 10.0011
Total in-flight flits = 1227 (0 measured)
latency change    = 0.00119067
throughput change = 0.00658042
Class 0:
Packet latency average = 134.063
	minimum = 14
	maximum = 157
Network latency average = 134.02
	minimum = 14
	maximum = 152
Slowest packet = 21774
Flit latency average = 124.983
	minimum = 5
	maximum = 143
Slowest flit = 248110
Fragmentation average = 0.050506
	minimum = 0
	maximum = 9
Injected packet rate average = 0.000994413
	minimum = 0.0002 (at node 77)
	maximum = 0.0022 (at node 686)
Accepted packet rate average = 0.000991856
	minimum = 0.0001 (at node 325)
	maximum = 0.0022 (at node 915)
Injected flit rate average = 0.00994034
	minimum = 0.002 (at node 77)
	maximum = 0.0217 (at node 686)
Accepted flit rate average= 0.00991866
	minimum = 0.001 (at node 325)
	maximum = 0.022 (at node 915)
Injected packet length average = 9.99619
Accepted packet length average = 10.0001
Total in-flight flits = 1496 (0 measured)
latency change    = 0.00161096
throughput change = 0.00473072
Warmed up ...Time used is 30000 cycles
Class 0:
Packet latency average = 133.401
	minimum = 14
	maximum = 156
Network latency average = 133.354
	minimum = 14
	maximum = 156
Slowest packet = 32979
Flit latency average = 124.364
	minimum = 5
	maximum = 147
Slowest flit = 398700
Fragmentation average = 0.0629521
	minimum = 0
	maximum = 8
Injected packet rate average = 0.000980682
	minimum = 0.0002 (at node 1038)
	maximum = 0.002 (at node 475)
Accepted packet rate average = 0.000983144
	minimum = 0.0002 (at node 474)
	maximum = 0.0022 (at node 519)
Injected flit rate average = 0.00980994
	minimum = 0.002 (at node 1038)
	maximum = 0.02 (at node 475)
Accepted flit rate average= 0.00983352
	minimum = 0.002 (at node 474)
	maximum = 0.022 (at node 519)
Injected packet length average = 10.0032
Accepted packet length average = 10.0021
Total in-flight flits = 1214 (1214 measured)
latency change    = 0.00496138
throughput change = 0.00865738
Class 0:
Packet latency average = 133.678
	minimum = 14
	maximum = 158
Network latency average = 133.633
	minimum = 14
	maximum = 158
Slowest packet = 42597
Flit latency average = 124.62
	minimum = 5
	maximum = 149
Slowest flit = 425970
Fragmentation average = 0.0562009
	minimum = 0
	maximum = 8
Injected packet rate average = 0.000989394
	minimum = 0.0003 (at node 1038)
	maximum = 0.00165 (at node 135)
Accepted packet rate average = 0.000989536
	minimum = 0.0004 (at node 663)
	maximum = 0.0017 (at node 156)
Injected flit rate average = 0.00989593
	minimum = 0.003 (at node 1038)
	maximum = 0.0165 (at node 135)
Accepted flit rate average= 0.00989569
	minimum = 0.004 (at node 663)
	maximum = 0.017 (at node 156)
Injected packet length average = 10.002
Accepted packet length average = 10.0003
Total in-flight flits = 1459 (1459 measured)
latency change    = 0.00207362
throughput change = 0.00628239
Class 0:
Packet latency average = 133.681
	minimum = 14
	maximum = 158
Network latency average = 133.633
	minimum = 14
	maximum = 158
Slowest packet = 42597
Flit latency average = 124.615
	minimum = 5
	maximum = 149
Slowest flit = 425970
Fragmentation average = 0.0518334
	minimum = 0
	maximum = 9
Injected packet rate average = 0.000995107
	minimum = 0.0004 (at node 897)
	maximum = 0.00156667 (at node 135)
Accepted packet rate average = 0.000995612
	minimum = 0.0005 (at node 295)
	maximum = 0.00163333 (at node 156)
Injected flit rate average = 0.00995205
	minimum = 0.004 (at node 897)
	maximum = 0.0156667 (at node 135)
Accepted flit rate average= 0.00995789
	minimum = 0.005 (at node 295)
	maximum = 0.0163333 (at node 156)
Injected packet length average = 10.001
Accepted packet length average = 10.0018
Total in-flight flits = 1280 (1280 measured)
latency change    = 2.19224e-05
throughput change = 0.00624631
Draining all recorded packets ...
Draining remaining packets ...
Time taken is 60370 cycles
====== Overall Traffic Statistics ======
====== Traffic class 0 ======
Packet latency average = 133.695 (1 samples)
	minimum = 14 (1 samples)
	maximum = 158 (1 samples)
Network latency average = 133.648 (1 samples)
	minimum = 14 (1 samples)
	maximum = 158 (1 samples)
Flit latency average = 124.634 (1 samples)
	minimum = 5 (1 samples)
	maximum = 149 (1 samples)
Fragmentation average = 0.0518636 (1 samples)
	minimum = 0 (1 samples)
	maximum = 9 (1 samples)
Injected packet rate average = 0.000995107 (1 samples)
	minimum = 0.0004 (1 samples)
	maximum = 0.00156667 (1 samples)
Accepted packet rate average = 0.000995612 (1 samples)
	minimum = 0.0005 (1 samples)
	maximum = 0.00163333 (1 samples)
Injected flit rate average = 0.00995205 (1 samples)
	minimum = 0.004 (1 samples)
	maximum = 0.0156667 (1 samples)
Accepted flit rate average = 0.00995789 (1 samples)
	minimum = 0.005 (1 samples)
	maximum = 0.0163333 (1 samples)
Injected packet size average = 10.001 (1 samples)
Accepted packet size average = 10.0018 (1 samples)
Hops average = 3.69386 (1 samples)
Total run time 143.605
BEGIN Configuration File: examples/dragonflyconfig
// $Id$

// Copyright (c) 2007-2015, Trustees of The Leland Stanford Junior University
// All rights reserved.
//
// Redistribution and use in source and binary forms, with or without
// modification, are permitted provided that the following conditions are met:
//
// Redistributions of source code must retain the above copyright notice, this
// list of conditions and the following disclaimer.
// Redistributions in binary form must reproduce the above copyright notice,
// this list of conditions and the following disclaimer in the documentation
// and/or other materials provided with the distribution.
//
// THIS SOFTWARE IS PROVIDED BY THE COPYRIGHT HOLDERS AND CONTRIBUTORS "AS IS"
// AND ANY EXPRESS OR IMPLIED WARRANTIES, INCLUDING, BUT NOT LIMITED TO, THE
// IMPLIED WARRANTIES OF MERCHANTABILITY AND FITNESS FOR A PARTICULAR PURPOSE
// ARE DISCLAIMED. IN NO EVENT SHALL THE COPYRIGHT OWNER OR CONTRIBUTORS BE
// LIABLE FOR ANY DIRECT, INDIRECT, INCIDENTAL, SPECIAL, EXEMPLARY, OR
// CONSEQUENTIAL DAMAGES (INCLUDING, BUT NOT LIMITED TO, PROCUREMENT OF
// SUBSTITUTE GOODS OR SERVICES; LOSS OF USE, DATA, OR PROFITS; OR BUSINESS
// INTERRUPTION) HOWEVER CAUSED AND ON ANY THEORY OF LIABILITY, WHETHER IN
// CONTRACT, STRICT LIABILITY, OR TORT (INCLUDING NEGLIGENCE OR OTHERWISE)
// ARISING IN ANY WAY OUT OF THE USE OF THIS SOFTWARE, EVEN IF ADVISED OF THE
// POSSIBILITY OF SUCH DAMAGE.

// Dragonfly
//




vc_buf_size = 256;


wait_for_tail_credit = 0;

//
// Router architecture
//
vc_allocator = separable_input_first; 
sw_allocator = separable_input_first;
alloc_iters  = 1;

credit_delay   = 2;
routing_delay  = 0;
vc_alloc_delay = 1;
sw_alloc_delay = 1;
st_final_delay = 1;

input_speedup     = 1;
output_speedup    = 1;
internal_speedup  = 2.0;


warmup_periods = 3;
sim_count          = 1;

sample_period  = 10000;  



routing_function = min;
num_vcs     = 2;

priority = none;
traffic       = uniform; 


packet_size = 10;
injection_rate_uses_flits=1;

topology = dragonflynew;

k  = 4;
n  = 1;

watch_out=-;

injection_rate =0.01;
stats_out = dragonfly_1.m;
injection_rate =0.05;
stats_out = dragonfly_5.m;

END Configuration File: examples/dragonflyconfig
 Dragonfly 
 p = 4 n = 1
 each switch - total radix =  15
 # of switches = 264
 # of channels = 2904
 # of nodes ( size of network ) = 1056
 # of groups (_g) = 33
 # of routers per group (_a) = 8
Done links
Class 0:
Packet latency average = 134.7
	minimum = 14
	maximum = 184
Network latency average = 134.459
	minimum = 14
	maximum = 184
Slowest packet = 23647
Flit latency average = 125.33
	minimum = 5
	maximum = 175
Slowest flit = 236470
Fragmentation average = 0.22304
	minimum = 0
	maximum = 15
Injected packet rate average = 0.00499498
	minimum = 0.0029 (at node 388)
	maximum = 0.0075 (at node 125)
Accepted packet rate average = 0.00492888
	minimum = 0.0027 (at node 641)
	maximum = 0.0079 (at node 357)
Injected flit rate average = 0.049933
	minimum = 0.029 (at node 388)
	maximum = 0.075 (at node 125)
Accepted flit rate average= 0.04931
	minimum = 0.027 (at node 641)
	maximum = 0.079 (at node 357)
Injected packet length average = 9.99664
Accepted packet length average = 10.0043
Total in-flight flits = 6756 (0 measured)
latency change    = 1
throughput change = 1
Class 0:
Packet latency average = 134.703
	minimum = 14
	maximum = 184
Network latency average = 134.464
	minimum = 14
	maximum = 184
Slowest packet = 23647
Flit latency average = 125.335
	minimum = 5
	maximum = 175
Slowest flit = 236470
Fragmentation average = 0.227241
	minimum = 0
	maximum = 15
Injected packet rate average = 0.00500511
	minimum = 0.00355 (at node 68)
	maximum = 0.0065 (at node 216)
Accepted packet rate average = 0.00497277
	minimum = 0.0034 (at node 641)
	maximum = 0.00695 (at node 357)
Injected flit rate average = 0.0500395
	minimum = 0.0355 (at node 68)
	maximum = 0.0647 (at node 216)
Accepted flit rate average= 0.0497394
	minimum = 0.034 (at node 641)
	maximum = 0.0696 (at node 357)
Injected packet length average = 9.99768
Accepted packet length average = 10.0024
Total in-flight flits = 6583 (0 measured)
latency change    = 2.22241e-05
throughput change = 0.00863306
Class 0:
Packet latency average = 134.776
	minimum = 14
	maximum = 168
Network latency average = 134.54
	minimum = 14
	maximum = 168
Slowest packet = 122079
Flit latency average = 125.404
	minimum = 5
	maximum = 159
Slowest flit = 1220790
Fragmentation average = 0.232262
	minimum = 0
	maximum = 12
Injected packet rate average = 0.00501042
	minimum = 0.0032 (at node 281)
	maximum = 0.0075 (at node 843)
Accepted packet rate average = 0.00500104
	minimum = 0.0029 (at node 978)
	maximum = 0.008 (at node 33)
Injected flit rate average = 0.0501076
	minimum = 0.032 (at node 281)
	maximum = 0.075 (at node 843)
Accepted flit rate average= 0.0500078
	minimum = 0.029 (at node 978)
	maximum = 0.08 (at node 33)
Injected packet length average = 10.0007
Accepted packet length average = 9.99947
Total in-flight flits = 7601 (0 measured)
latency change    = 0.00054228
throughput change = 0.00536564
Warmed up ...Time used is 30000 cycles
Class 0:
Packet latency average = 134.709
	minimum = 14
	maximum = 176
Network latency average = 134.474
	minimum = 14
	maximum = 172
Slowest packet = 191655
Flit latency average = 125.394
	minimum = 5
	maximum = 163
Slowest flit = 1916550
Fragmentation average = 0.220867
	minimum = 0
	maximum = 14
Injected packet rate average = 0.00496629
	minimum = 0.0028 (at node 687)
	maximum = 0.0075 (at node 507)
Accepted packet rate average = 0.00497254
	minimum = 0.0028 (at node 956)
	maximum = 0.0071 (at node 962)
Injected flit rate average = 0.0496529
	minimum = 0.028 (at node 687)
	maximum = 0.075 (at node 507)
Accepted flit rate average= 0.0497208
	minimum = 0.028 (at node 956)
	maximum = 0.071 (at node 962)
Injected packet length average = 9.998
Accepted packet length average = 9.99909
Total in-flight flits = 6989 (6989 measured)
latency change    = 0.000494223
throughput change = 0.00577086
Class 0:
Packet latency average = 134.721
	minimum = 14
	maximum = 176
Network latency average = 134.485
	minimum = 14
	maximum = 172
Slowest packet = 191655
Flit latency average = 125.379
	minimum = 5
	maximum = 163
Slowest flit = 1916550
Fragmentation average = 0.225629
	minimum = 0
	maximum = 15
Injected packet rate average = 0.00496809
	minimum = 0.0033 (at node 350)
	maximum = 0.0066 (at node 902)
Accepted packet rate average = 0.00497273
	minimum = 0.0035 (at node 956)
	maximum = 0.00675 (at node 554)
Injected flit rate average = 0.0496769
	minimum = 0.033 (at node 350)
	maximum = 0.066 (at node 902)
Accepted flit rate average= 0.0497281
	minimum = 0.035 (at node 956)
	maximum = 0.0675 (at node 554)
Injected packet length average = 9.99921
Accepted packet length average = 10.0002
Total in-flight flits = 6603 (6603 measured)
latency change    = 8.50634e-05
throughput change = 0.000146631
Class 0:
Packet latency average = 134.742
	minimum = 14
	maximum = 176
Network latency average = 134.513
	minimum = 14
	maximum = 174
Slowest packet = 191655
Flit latency average = 125.396
	minimum = 5
	maximum = 165
Slowest flit = 3074690
Fragmentation average = 0.232119
	minimum = 0
	maximum = 16
Injected packet rate average = 0.00498169
	minimum = 0.00356667 (at node 981)
	maximum = 0.00633333 (at node 944)
Accepted packet rate average = 0.00498352
	minimum = 0.0038 (at node 900)
	maximum = 0.00636667 (at node 29)
Injected flit rate average = 0.0498174
	minimum = 0.0356667 (at node 981)
	maximum = 0.0633333 (at node 944)
Accepted flit rate average= 0.0498372
	minimum = 0.038 (at node 900)
	maximum = 0.0636667 (at node 29)
Injected packet length average = 10.0001
Accepted packet length average = 10.0004
Total in-flight flits = 6958 (6958 measured)
latency change    = 0.000158724
throughput change = 0.00218894
Draining all recorded packets ...
Draining remaining packets ...
Time taken is 60381 cycles
====== Overall Traffic Statistics ======
====== Traffic class 0 ======
Packet latency average = 134.758 (1 samples)
	minimum = 14 (1 samples)
	maximum = 176 (1 samples)
Network latency average = 134.529 (1 samples)
	minimum = 14 (1 samples)
	maximum = 174 (1 samples)
Flit latency average = 125.408 (1 samples)
	minimum = 5 (1 samples)
	maximum = 165 (1 samples)
Fragmentation average = 0.232106 (1 samples)
	minimum = 0 (1 samples)
	maximum = 16 (1 samples)
Injected packet rate average = 0.00498169 (1 samples)
	minimum = 0.00356667 (1 samples)
	maximum = 0.00633333 (1 samples)
Accepted packet rate average = 0.00498352 (1 samples)
	minimum = 0.0038 (1 samples)
	maximum = 0.00636667 (1 samples)
Injected flit rate average = 0.0498174 (1 samples)
	minimum = 0.0356667 (1 samples)
	maximum = 0.0633333 (1 samples)
Accepted flit rate average = 0.0498372 (1 samples)
	minimum = 0.038 (1 samples)
	maximum = 0.0636667 (1 samples)
Injected packet size average = 10.0001 (1 samples)
Accepted packet size average = 10.0004 (1 samples)
Hops average = 3.69543 (1 samples)
Total run time 280.127
BEGIN Configuration File: examples/dragonflyconfig
// $Id$

// Copyright (c) 2007-2015, Trustees of The Leland Stanford Junior University
// All rights reserved.
//
// Redistribution and use in source and binary forms, with or without
// modification, are permitted provided that the following conditions are met:
//
// Redistributions of source code must retain the above copyright notice, this
// list of conditions and the following disclaimer.
// Redistributions in binary form must reproduce the above copyright notice,
// this list of conditions and the following disclaimer in the documentation
// and/or other materials provided with the distribution.
//
// THIS SOFTWARE IS PROVIDED BY THE COPYRIGHT HOLDERS AND CONTRIBUTORS "AS IS"
// AND ANY EXPRESS OR IMPLIED WARRANTIES, INCLUDING, BUT NOT LIMITED TO, THE
// IMPLIED WARRANTIES OF MERCHANTABILITY AND FITNESS FOR A PARTICULAR PURPOSE
// ARE DISCLAIMED. IN NO EVENT SHALL THE COPYRIGHT OWNER OR CONTRIBUTORS BE
// LIABLE FOR ANY DIRECT, INDIRECT, INCIDENTAL, SPECIAL, EXEMPLARY, OR
// CONSEQUENTIAL DAMAGES (INCLUDING, BUT NOT LIMITED TO, PROCUREMENT OF
// SUBSTITUTE GOODS OR SERVICES; LOSS OF USE, DATA, OR PROFITS; OR BUSINESS
// INTERRUPTION) HOWEVER CAUSED AND ON ANY THEORY OF LIABILITY, WHETHER IN
// CONTRACT, STRICT LIABILITY, OR TORT (INCLUDING NEGLIGENCE OR OTHERWISE)
// ARISING IN ANY WAY OUT OF THE USE OF THIS SOFTWARE, EVEN IF ADVISED OF THE
// POSSIBILITY OF SUCH DAMAGE.

// Dragonfly
//




vc_buf_size = 256;


wait_for_tail_credit = 0;

//
// Router architecture
//
vc_allocator = separable_input_first; 
sw_allocator = separable_input_first;
alloc_iters  = 1;

credit_delay   = 2;
routing_delay  = 0;
vc_alloc_delay = 1;
sw_alloc_delay = 1;
st_final_delay = 1;

input_speedup     = 1;
output_speedup    = 1;
internal_speedup  = 2.0;


warmup_periods = 3;
sim_count          = 1;

sample_period  = 10000;  



routing_function = min;
num_vcs     = 2;

priority = none;
traffic       = uniform; 


packet_size = 10;
injection_rate_uses_flits=1;

topology = dragonflynew;

k  = 4;
n  = 1;

watch_out=-;

injection_rate =0.01;
stats_out = dragonfly_1.m;
injection_rate =0.05;
stats_out = dragonfly_5.m;
injection_rate =0.1;
stats_out = dragonfly_10.m;

END Configuration File: examples/dragonflyconfig
 Dragonfly 
 p = 4 n = 1
 each switch - total radix =  15
 # of switches = 264
 # of channels = 2904
 # of nodes ( size of network ) = 1056
 # of groups (_g) = 33
 # of routers per group (_a) = 8
Done links
Class 0:
Packet latency average = 136.017
	minimum = 14
	maximum = 182
Network latency average = 135.528
	minimum = 14
	maximum = 182
Slowest packet = 31184
Flit latency average = 126.285
	minimum = 5
	maximum = 173
Slowest flit = 311840
Fragmentation average = 0.42516
	minimum = 0
	maximum = 17
Injected packet rate average = 0.0100045
	minimum = 0.0074 (at node 420)
	maximum = 0.0129 (at node 45)
Accepted packet rate average = 0.00986572
	minimum = 0.0068 (at node 927)
	maximum = 0.0133 (at node 801)
Injected flit rate average = 0.100003
	minimum = 0.074 (at node 420)
	maximum = 0.129 (at node 45)
Accepted flit rate average= 0.0987033
	minimum = 0.0682 (at node 927)
	maximum = 0.133 (at node 801)
Injected packet length average = 9.99582
Accepted packet length average = 10.0047
Total in-flight flits = 14163 (0 measured)
latency change    = 1
throughput change = 1
Class 0:
Packet latency average = 136.035
	minimum = 14
	maximum = 191
Network latency average = 135.54
	minimum = 14
	maximum = 191
Slowest packet = 182427
Flit latency average = 126.29
	minimum = 5
	maximum = 182
Slowest flit = 1824270
Fragmentation average = 0.434994
	minimum = 0
	maximum = 17
Injected packet rate average = 0.0100163
	minimum = 0.008 (at node 783)
	maximum = 0.01215 (at node 519)
Accepted packet rate average = 0.00995104
	minimum = 0.0078 (at node 664)
	maximum = 0.0122 (at node 53)
Injected flit rate average = 0.100139
	minimum = 0.08 (at node 783)
	maximum = 0.1215 (at node 519)
Accepted flit rate average= 0.0995313
	minimum = 0.078 (at node 664)
	maximum = 0.122 (at node 53)
Injected packet length average = 9.99764
Accepted packet length average = 10.0021
Total in-flight flits = 13339 (0 measured)
latency change    = 0.00012646
throughput change = 0.00831882
Class 0:
Packet latency average = 136.051
	minimum = 14
	maximum = 185
Network latency average = 135.551
	minimum = 14
	maximum = 183
Slowest packet = 273612
Flit latency average = 126.3
	minimum = 5
	maximum = 174
Slowest flit = 2736120
Fragmentation average = 0.435872
	minimum = 0
	maximum = 16
Injected packet rate average = 0.0100123
	minimum = 0.0069 (at node 174)
	maximum = 0.0133 (at node 437)
Accepted packet rate average = 0.010003
	minimum = 0.0067 (at node 842)
	maximum = 0.0136 (at node 284)
Injected flit rate average = 0.100132
	minimum = 0.0687 (at node 174)
	maximum = 0.1339 (at node 437)
Accepted flit rate average= 0.100026
	minimum = 0.067 (at node 842)
	maximum = 0.136 (at node 284)
Injected packet length average = 10.0009
Accepted packet length average = 9.99959
Total in-flight flits = 14362 (0 measured)
latency change    = 0.000116931
throughput change = 0.00494804
Warmed up ...Time used is 30000 cycles
Class 0:
Packet latency average = 135.99
	minimum = 14
	maximum = 191
Network latency average = 135.492
	minimum = 14
	maximum = 191
Slowest packet = 378490
Flit latency average = 126.289
	minimum = 5
	maximum = 182
Slowest flit = 3784900
Fragmentation average = 0.434997
	minimum = 0
	maximum = 18
Injected packet rate average = 0.00995682
	minimum = 0.007 (at node 939)
	maximum = 0.0134 (at node 240)
Accepted packet rate average = 0.0099572
	minimum = 0.0069 (at node 702)
	maximum = 0.0128 (at node 639)
Injected flit rate average = 0.0995517
	minimum = 0.07 (at node 939)
	maximum = 0.134 (at node 240)
Accepted flit rate average= 0.0995765
	minimum = 0.069 (at node 702)
	maximum = 0.128 (at node 639)
Injected packet length average = 9.99835
Accepted packet length average = 10.0005
Total in-flight flits = 14274 (14274 measured)
latency change    = 0.00044337
throughput change = 0.00451628
Class 0:
Packet latency average = 136.063
	minimum = 14
	maximum = 191
Network latency average = 135.566
	minimum = 14
	maximum = 191
Slowest packet = 378490
Flit latency average = 126.339
	minimum = 5
	maximum = 182
Slowest flit = 3784900
Fragmentation average = 0.436159
	minimum = 0
	maximum = 18
Injected packet rate average = 0.00995795
	minimum = 0.00775 (at node 12)
	maximum = 0.0123 (at node 785)
Accepted packet rate average = 0.00996439
	minimum = 0.008 (at node 474)
	maximum = 0.01235 (at node 348)
Injected flit rate average = 0.0995759
	minimum = 0.0775 (at node 12)
	maximum = 0.12315 (at node 785)
Accepted flit rate average= 0.0996451
	minimum = 0.08 (at node 474)
	maximum = 0.1231 (at node 348)
Injected packet length average = 9.99963
Accepted packet length average = 10.0001
Total in-flight flits = 12977 (12977 measured)
latency change    = 0.000535805
throughput change = 0.000688523
Class 0:
Packet latency average = 136.059
	minimum = 14
	maximum = 197
Network latency average = 135.562
	minimum = 14
	maximum = 191
Slowest packet = 378490
Flit latency average = 126.327
	minimum = 5
	maximum = 182
Slowest flit = 3784900
Fragmentation average = 0.435804
	minimum = 0
	maximum = 18
Injected packet rate average = 0.00998336
	minimum = 0.0082 (at node 12)
	maximum = 0.0121333 (at node 681)
Accepted packet rate average = 0.00998403
	minimum = 0.0083 (at node 205)
	maximum = 0.0123333 (at node 348)
Injected flit rate average = 0.099834
	minimum = 0.082 (at node 12)
	maximum = 0.121333 (at node 681)
Accepted flit rate average= 0.0998467
	minimum = 0.083 (at node 205)
	maximum = 0.123067 (at node 348)
Injected packet length average = 10
Accepted packet length average = 10.0006
Total in-flight flits = 13947 (13947 measured)
latency change    = 3.32326e-05
throughput change = 0.00201935
Draining all recorded packets ...
Draining remaining packets ...
Time taken is 60388 cycles
====== Overall Traffic Statistics ======
====== Traffic class 0 ======
Packet latency average = 136.073 (1 samples)
	minimum = 14 (1 samples)
	maximum = 197 (1 samples)
Network latency average = 135.577 (1 samples)
	minimum = 14 (1 samples)
	maximum = 191 (1 samples)
Flit latency average = 126.338 (1 samples)
	minimum = 5 (1 samples)
	maximum = 182 (1 samples)
Fragmentation average = 0.435796 (1 samples)
	minimum = 0 (1 samples)
	maximum = 18 (1 samples)
Injected packet rate average = 0.00998336 (1 samples)
	minimum = 0.0082 (1 samples)
	maximum = 0.0121333 (1 samples)
Accepted packet rate average = 0.00998403 (1 samples)
	minimum = 0.0083 (1 samples)
	maximum = 0.0123333 (1 samples)
Injected flit rate average = 0.099834 (1 samples)
	minimum = 0.082 (1 samples)
	maximum = 0.121333 (1 samples)
Accepted flit rate average = 0.0998467 (1 samples)
	minimum = 0.083 (1 samples)
	maximum = 0.123067 (1 samples)
Injected packet size average = 10 (1 samples)
Accepted packet size average = 10.0006 (1 samples)
Hops average = 3.69358 (1 samples)
Total run time 411.744
BEGIN Configuration File: examples/dragonflyconfig
// $Id$

// Copyright (c) 2007-2015, Trustees of The Leland Stanford Junior University
// All rights reserved.
//
// Redistribution and use in source and binary forms, with or without
// modification, are permitted provided that the following conditions are met:
//
// Redistributions of source code must retain the above copyright notice, this
// list of conditions and the following disclaimer.
// Redistributions in binary form must reproduce the above copyright notice,
// this list of conditions and the following disclaimer in the documentation
// and/or other materials provided with the distribution.
//
// THIS SOFTWARE IS PROVIDED BY THE COPYRIGHT HOLDERS AND CONTRIBUTORS "AS IS"
// AND ANY EXPRESS OR IMPLIED WARRANTIES, INCLUDING, BUT NOT LIMITED TO, THE
// IMPLIED WARRANTIES OF MERCHANTABILITY AND FITNESS FOR A PARTICULAR PURPOSE
// ARE DISCLAIMED. IN NO EVENT SHALL THE COPYRIGHT OWNER OR CONTRIBUTORS BE
// LIABLE FOR ANY DIRECT, INDIRECT, INCIDENTAL, SPECIAL, EXEMPLARY, OR
// CONSEQUENTIAL DAMAGES (INCLUDING, BUT NOT LIMITED TO, PROCUREMENT OF
// SUBSTITUTE GOODS OR SERVICES; LOSS OF USE, DATA, OR PROFITS; OR BUSINESS
// INTERRUPTION) HOWEVER CAUSED AND ON ANY THEORY OF LIABILITY, WHETHER IN
// CONTRACT, STRICT LIABILITY, OR TORT (INCLUDING NEGLIGENCE OR OTHERWISE)
// ARISING IN ANY WAY OUT OF THE USE OF THIS SOFTWARE, EVEN IF ADVISED OF THE
// POSSIBILITY OF SUCH DAMAGE.

// Dragonfly
//




vc_buf_size = 256;


wait_for_tail_credit = 0;

//
// Router architecture
//
vc_allocator = separable_input_first; 
sw_allocator = separable_input_first;
alloc_iters  = 1;

credit_delay   = 2;
routing_delay  = 0;
vc_alloc_delay = 1;
sw_alloc_delay = 1;
st_final_delay = 1;

input_speedup     = 1;
output_speedup    = 1;
internal_speedup  = 2.0;


warmup_periods = 3;
sim_count          = 1;

sample_period  = 10000;  



routing_function = min;
num_vcs     = 2;

priority = none;
traffic       = uniform; 


packet_size = 10;
injection_rate_uses_flits=1;

topology = dragonflynew;

k  = 4;
n  = 1;

watch_out=-;

injection_rate =0.01;
stats_out = dragonfly_1.m;
injection_rate =0.05;
stats_out = dragonfly_5.m;
injection_rate =0.1;
stats_out = dragonfly_10.m;
injection_rate =0.15;
stats_out = dragonfly_15.m;

END Configuration File: examples/dragonflyconfig
 Dragonfly 
 p = 4 n = 1
 each switch - total radix =  15
 # of switches = 264
 # of channels = 2904
 # of nodes ( size of network ) = 1056
 # of groups (_g) = 33
 # of routers per group (_a) = 8
Done links
Class 0:
Packet latency average = 137.642
	minimum = 14
	maximum = 197
Network latency average = 136.839
	minimum = 14
	maximum = 197
Slowest packet = 80987
Flit latency average = 127.488
	minimum = 5
	maximum = 188
Slowest flit = 809875
Fragmentation average = 0.611108
	minimum = 0
	maximum = 19
Injected packet rate average = 0.0149962
	minimum = 0.0115 (at node 59)
	maximum = 0.0192 (at node 372)
Accepted packet rate average = 0.0147856
	minimum = 0.0113 (at node 246)
	maximum = 0.0185 (at node 566)
Injected flit rate average = 0.149904
	minimum = 0.115 (at node 59)
	maximum = 0.192 (at node 372)
Accepted flit rate average= 0.147931
	minimum = 0.113 (at node 246)
	maximum = 0.185 (at node 566)
Injected packet length average = 9.99615
Accepted packet length average = 10.0051
Total in-flight flits = 21445 (0 measured)
latency change    = 1
throughput change = 1
Class 0:
Packet latency average = 137.633
	minimum = 14
	maximum = 197
Network latency average = 136.84
	minimum = 14
	maximum = 197
Slowest packet = 80987
Flit latency average = 127.486
	minimum = 5
	maximum = 188
Slowest flit = 809875
Fragmentation average = 0.615459
	minimum = 0
	maximum = 19
Injected packet rate average = 0.0150163
	minimum = 0.0123 (at node 1022)
	maximum = 0.0184 (at node 158)
Accepted packet rate average = 0.0149187
	minimum = 0.01235 (at node 459)
	maximum = 0.01735 (at node 566)
Injected flit rate average = 0.150127
	minimum = 0.123 (at node 1022)
	maximum = 0.184 (at node 158)
Accepted flit rate average= 0.149217
	minimum = 0.1235 (at node 459)
	maximum = 0.1735 (at node 566)
Injected packet length average = 9.99756
Accepted packet length average = 10.0021
Total in-flight flits = 19982 (0 measured)
latency change    = 6.40313e-05
throughput change = 0.00861757
Class 0:
Packet latency average = 137.539
	minimum = 14
	maximum = 195
Network latency average = 136.742
	minimum = 14
	maximum = 195
Slowest packet = 382512
Flit latency average = 127.384
	minimum = 5
	maximum = 186
Slowest flit = 3825120
Fragmentation average = 0.626211
	minimum = 0
	maximum = 18
Injected packet rate average = 0.0150717
	minimum = 0.0114 (at node 809)
	maximum = 0.0187 (at node 431)
Accepted packet rate average = 0.0150549
	minimum = 0.0114 (at node 214)
	maximum = 0.0189 (at node 818)
Injected flit rate average = 0.150733
	minimum = 0.114 (at node 809)
	maximum = 0.187 (at node 431)
Accepted flit rate average= 0.150552
	minimum = 0.114 (at node 214)
	maximum = 0.189 (at node 818)
Injected packet length average = 10.001
Accepted packet length average = 10.0002
Total in-flight flits = 21726 (0 measured)
latency change    = 0.000679114
throughput change = 0.00886386
Warmed up ...Time used is 30000 cycles
Class 0:
Packet latency average = 137.589
	minimum = 14
	maximum = 209
Network latency average = 136.804
	minimum = 14
	maximum = 209
Slowest packet = 589731
Flit latency average = 127.502
	minimum = 5
	maximum = 200
Slowest flit = 5897310
Fragmentation average = 0.617253
	minimum = 0
	maximum = 17
Injected packet rate average = 0.0149582
	minimum = 0.0116 (at node 498)
	maximum = 0.0191 (at node 453)
Accepted packet rate average = 0.0149659
	minimum = 0.0114 (at node 479)
	maximum = 0.0191 (at node 377)
Injected flit rate average = 0.149559
	minimum = 0.1153 (at node 751)
	maximum = 0.1908 (at node 453)
Accepted flit rate average= 0.149672
	minimum = 0.114 (at node 479)
	maximum = 0.1901 (at node 377)
Injected packet length average = 9.99845
Accepted packet length average = 10.0008
Total in-flight flits = 20783 (20783 measured)
latency change    = 0.000362751
throughput change = 0.00587966
Class 0:
Packet latency average = 137.58
	minimum = 14
	maximum = 209
Network latency average = 136.795
	minimum = 14
	maximum = 209
Slowest packet = 589731
Flit latency average = 127.465
	minimum = 5
	maximum = 200
Slowest flit = 5897310
Fragmentation average = 0.618208
	minimum = 0
	maximum = 19
Injected packet rate average = 0.0149547
	minimum = 0.01215 (at node 465)
	maximum = 0.0179 (at node 453)
Accepted packet rate average = 0.0149646
	minimum = 0.01225 (at node 78)
	maximum = 0.01775 (at node 377)
Injected flit rate average = 0.149544
	minimum = 0.1219 (at node 465)
	maximum = 0.179 (at node 453)
Accepted flit rate average= 0.149649
	minimum = 0.1225 (at node 78)
	maximum = 0.17705 (at node 377)
Injected packet length average = 9.99978
Accepted packet length average = 10.0002
Total in-flight flits = 19570 (19570 measured)
latency change    = 6.9009e-05
throughput change = 0.000151871
Class 0:
Packet latency average = 137.567
	minimum = 14
	maximum = 209
Network latency average = 136.777
	minimum = 14
	maximum = 209
Slowest packet = 589731
Flit latency average = 127.439
	minimum = 5
	maximum = 200
Slowest flit = 5897310
Fragmentation average = 0.619443
	minimum = 0
	maximum = 19
Injected packet rate average = 0.0149917
	minimum = 0.0126667 (at node 1042)
	maximum = 0.0174 (at node 453)
Accepted packet rate average = 0.0149936
	minimum = 0.0125667 (at node 756)
	maximum = 0.0175667 (at node 377)
Injected flit rate average = 0.149916
	minimum = 0.126667 (at node 1042)
	maximum = 0.174 (at node 453)
Accepted flit rate average= 0.149934
	minimum = 0.125467 (at node 756)
	maximum = 0.175367 (at node 377)
Injected packet length average = 9.99994
Accepted packet length average = 9.99988
Total in-flight flits = 21194 (21194 measured)
latency change    = 9.11821e-05
throughput change = 0.00190172
Draining all recorded packets ...
Draining remaining packets ...
Time taken is 60393 cycles
====== Overall Traffic Statistics ======
====== Traffic class 0 ======
Packet latency average = 137.581 (1 samples)
	minimum = 14 (1 samples)
	maximum = 209 (1 samples)
Network latency average = 136.791 (1 samples)
	minimum = 14 (1 samples)
	maximum = 209 (1 samples)
Flit latency average = 127.453 (1 samples)
	minimum = 5 (1 samples)
	maximum = 200 (1 samples)
Fragmentation average = 0.619309 (1 samples)
	minimum = 0 (1 samples)
	maximum = 19 (1 samples)
Injected packet rate average = 0.0149917 (1 samples)
	minimum = 0.0126667 (1 samples)
	maximum = 0.0174 (1 samples)
Accepted packet rate average = 0.0149936 (1 samples)
	minimum = 0.0125667 (1 samples)
	maximum = 0.0175667 (1 samples)
Injected flit rate average = 0.149916 (1 samples)
	minimum = 0.126667 (1 samples)
	maximum = 0.174 (1 samples)
Accepted flit rate average = 0.149934 (1 samples)
	minimum = 0.125467 (1 samples)
	maximum = 0.175367 (1 samples)
Injected packet size average = 9.99994 (1 samples)
Accepted packet size average = 9.99988 (1 samples)
Hops average = 3.69323 (1 samples)
Total run time 547.527
BEGIN Configuration File: examples/dragonflyconfig
// $Id$

// Copyright (c) 2007-2015, Trustees of The Leland Stanford Junior University
// All rights reserved.
//
// Redistribution and use in source and binary forms, with or without
// modification, are permitted provided that the following conditions are met:
//
// Redistributions of source code must retain the above copyright notice, this
// list of conditions and the following disclaimer.
// Redistributions in binary form must reproduce the above copyright notice,
// this list of conditions and the following disclaimer in the documentation
// and/or other materials provided with the distribution.
//
// THIS SOFTWARE IS PROVIDED BY THE COPYRIGHT HOLDERS AND CONTRIBUTORS "AS IS"
// AND ANY EXPRESS OR IMPLIED WARRANTIES, INCLUDING, BUT NOT LIMITED TO, THE
// IMPLIED WARRANTIES OF MERCHANTABILITY AND FITNESS FOR A PARTICULAR PURPOSE
// ARE DISCLAIMED. IN NO EVENT SHALL THE COPYRIGHT OWNER OR CONTRIBUTORS BE
// LIABLE FOR ANY DIRECT, INDIRECT, INCIDENTAL, SPECIAL, EXEMPLARY, OR
// CONSEQUENTIAL DAMAGES (INCLUDING, BUT NOT LIMITED TO, PROCUREMENT OF
// SUBSTITUTE GOODS OR SERVICES; LOSS OF USE, DATA, OR PROFITS; OR BUSINESS
// INTERRUPTION) HOWEVER CAUSED AND ON ANY THEORY OF LIABILITY, WHETHER IN
// CONTRACT, STRICT LIABILITY, OR TORT (INCLUDING NEGLIGENCE OR OTHERWISE)
// ARISING IN ANY WAY OUT OF THE USE OF THIS SOFTWARE, EVEN IF ADVISED OF THE
// POSSIBILITY OF SUCH DAMAGE.

// Dragonfly
//




vc_buf_size = 256;


wait_for_tail_credit = 0;

//
// Router architecture
//
vc_allocator = separable_input_first; 
sw_allocator = separable_input_first;
alloc_iters  = 1;

credit_delay   = 2;
routing_delay  = 0;
vc_alloc_delay = 1;
sw_alloc_delay = 1;
st_final_delay = 1;

input_speedup     = 1;
output_speedup    = 1;
internal_speedup  = 2.0;


warmup_periods = 3;
sim_count          = 1;

sample_period  = 10000;  



routing_function = min;
num_vcs     = 2;

priority = none;
traffic       = uniform; 


packet_size = 10;
injection_rate_uses_flits=1;

topology = dragonflynew;

k  = 4;
n  = 1;

watch_out=-;

injection_rate =0.01;
stats_out = dragonfly_1.m;
injection_rate =0.05;
stats_out = dragonfly_5.m;
injection_rate =0.1;
stats_out = dragonfly_10.m;
injection_rate =0.15;
stats_out = dragonfly_15.m;
injection_rate =0.2;
stats_out = dragonfly_20.m;

END Configuration File: examples/dragonflyconfig
 Dragonfly 
 p = 4 n = 1
 each switch - total radix =  15
 # of switches = 264
 # of channels = 2904
 # of nodes ( size of network ) = 1056
 # of groups (_g) = 33
 # of routers per group (_a) = 8
Done links
Class 0:
Packet latency average = 139.222
	minimum = 14
	maximum = 227
Network latency average = 138.109
	minimum = 14
	maximum = 221
Slowest packet = 37119
Flit latency average = 128.662
	minimum = 5
	maximum = 212
Slowest flit = 371190
Fragmentation average = 0.776925
	minimum = 0
	maximum = 19
Injected packet rate average = 0.0200086
	minimum = 0.015 (at node 383)
	maximum = 0.0246 (at node 426)
Accepted packet rate average = 0.0197243
	minimum = 0.0156 (at node 662)
	maximum = 0.0245 (at node 214)
Injected flit rate average = 0.200003
	minimum = 0.15 (at node 383)
	maximum = 0.246 (at node 426)
Accepted flit rate average= 0.197343
	minimum = 0.156 (at node 662)
	maximum = 0.245 (at node 214)
Injected packet length average = 9.99583
Accepted packet length average = 10.0051
Total in-flight flits = 28964 (0 measured)
latency change    = 1
throughput change = 1
Class 0:
Packet latency average = 139.264
	minimum = 14
	maximum = 227
Network latency average = 138.148
	minimum = 14
	maximum = 221
Slowest packet = 37119
Flit latency average = 128.701
	minimum = 5
	maximum = 212
Slowest flit = 371190
Fragmentation average = 0.778087
	minimum = 0
	maximum = 21
Injected packet rate average = 0.0200182
	minimum = 0.0173 (at node 114)
	maximum = 0.0237 (at node 324)
Accepted packet rate average = 0.0198835
	minimum = 0.01645 (at node 275)
	maximum = 0.02355 (at node 445)
Injected flit rate average = 0.200138
	minimum = 0.173 (at node 114)
	maximum = 0.2366 (at node 324)
Accepted flit rate average= 0.198883
	minimum = 0.1645 (at node 275)
	maximum = 0.2355 (at node 445)
Injected packet length average = 9.99777
Accepted packet length average = 10.0024
Total in-flight flits = 27450 (0 measured)
latency change    = 0.000308027
throughput change = 0.00773926
Class 0:
Packet latency average = 139.342
	minimum = 14
	maximum = 201
Network latency average = 138.211
	minimum = 14
	maximum = 201
Slowest packet = 422143
Flit latency average = 128.765
	minimum = 5
	maximum = 192
Slowest flit = 5882680
Fragmentation average = 0.776178
	minimum = 0
	maximum = 24
Injected packet rate average = 0.0201177
	minimum = 0.0151 (at node 808)
	maximum = 0.0241 (at node 655)
Accepted packet rate average = 0.0201048
	minimum = 0.0152 (at node 205)
	maximum = 0.0246 (at node 59)
Injected flit rate average = 0.201186
	minimum = 0.151 (at node 808)
	maximum = 0.241 (at node 655)
Accepted flit rate average= 0.201054
	minimum = 0.152 (at node 205)
	maximum = 0.246 (at node 521)
Injected packet length average = 10.0004
Accepted packet length average = 10.0003
Total in-flight flits = 28745 (0 measured)
latency change    = 0.000559342
throughput change = 0.0108024
Warmed up ...Time used is 30000 cycles
Class 0:
Packet latency average = 139.296
	minimum = 14
	maximum = 213
Network latency average = 138.176
	minimum = 14
	maximum = 213
Slowest packet = 781896
Flit latency average = 128.782
	minimum = 5
	maximum = 204
Slowest flit = 7818960
Fragmentation average = 0.77304
	minimum = 0
	maximum = 19
Injected packet rate average = 0.0199694
	minimum = 0.0158 (at node 654)
	maximum = 0.0255 (at node 665)
Accepted packet rate average = 0.0199728
	minimum = 0.0156 (at node 297)
	maximum = 0.0252 (at node 960)
Injected flit rate average = 0.199675
	minimum = 0.158 (at node 654)
	maximum = 0.255 (at node 665)
Accepted flit rate average= 0.199726
	minimum = 0.156 (at node 297)
	maximum = 0.252 (at node 960)
Injected packet length average = 9.99902
Accepted packet length average = 9.99991
Total in-flight flits = 28404 (28404 measured)
latency change    = 0.000335055
throughput change = 0.00664925
Class 0:
Packet latency average = 139.313
	minimum = 14
	maximum = 213
Network latency average = 138.188
	minimum = 14
	maximum = 213
Slowest packet = 781896
Flit latency average = 128.767
	minimum = 5
	maximum = 204
Slowest flit = 7818960
Fragmentation average = 0.774141
	minimum = 0
	maximum = 19
Injected packet rate average = 0.0199813
	minimum = 0.0171 (at node 1050)
	maximum = 0.0229 (at node 257)
Accepted packet rate average = 0.0199921
	minimum = 0.0158 (at node 297)
	maximum = 0.02395 (at node 75)
Injected flit rate average = 0.199816
	minimum = 0.171 (at node 1050)
	maximum = 0.229 (at node 257)
Accepted flit rate average= 0.19992
	minimum = 0.15825 (at node 297)
	maximum = 0.23985 (at node 75)
Injected packet length average = 10.0001
Accepted packet length average = 9.99992
Total in-flight flits = 26498 (26498 measured)
latency change    = 0.000127164
throughput change = 0.000967481
Class 0:
Packet latency average = 139.32
	minimum = 14
	maximum = 222
Network latency average = 138.195
	minimum = 14
	maximum = 222
Slowest packet = 1214772
Flit latency average = 128.765
	minimum = 5
	maximum = 213
Slowest flit = 12147720
Fragmentation average = 0.776576
	minimum = 0
	maximum = 22
Injected packet rate average = 0.0200097
	minimum = 0.0172 (at node 418)
	maximum = 0.0225333 (at node 509)
Accepted packet rate average = 0.020011
	minimum = 0.0176 (at node 305)
	maximum = 0.0227667 (at node 989)
Injected flit rate average = 0.200097
	minimum = 0.172 (at node 418)
	maximum = 0.225333 (at node 509)
Accepted flit rate average= 0.200107
	minimum = 0.175767 (at node 305)
	maximum = 0.227667 (at node 989)
Injected packet length average = 10
Accepted packet length average = 9.99989
Total in-flight flits = 28414 (28414 measured)
latency change    = 4.81623e-05
throughput change = 0.000937076
Draining all recorded packets ...
Draining remaining packets ...
Time taken is 60414 cycles
====== Overall Traffic Statistics ======
====== Traffic class 0 ======
Packet latency average = 139.337 (1 samples)
	minimum = 14 (1 samples)
	maximum = 222 (1 samples)
Network latency average = 138.211 (1 samples)
	minimum = 14 (1 samples)
	maximum = 222 (1 samples)
Flit latency average = 128.779 (1 samples)
	minimum = 5 (1 samples)
	maximum = 213 (1 samples)
Fragmentation average = 0.776747 (1 samples)
	minimum = 0 (1 samples)
	maximum = 22 (1 samples)
Injected packet rate average = 0.0200097 (1 samples)
	minimum = 0.0172 (1 samples)
	maximum = 0.0225333 (1 samples)
Accepted packet rate average = 0.020011 (1 samples)
	minimum = 0.0176 (1 samples)
	maximum = 0.0227667 (1 samples)
Injected flit rate average = 0.200097 (1 samples)
	minimum = 0.172 (1 samples)
	maximum = 0.225333 (1 samples)
Accepted flit rate average = 0.200107 (1 samples)
	minimum = 0.175767 (1 samples)
	maximum = 0.227667 (1 samples)
Injected packet size average = 10 (1 samples)
Accepted packet size average = 9.99989 (1 samples)
Hops average = 3.69449 (1 samples)
Total run time 638.262
BEGIN Configuration File: examples/dragonflyconfig
// $Id$

// Copyright (c) 2007-2015, Trustees of The Leland Stanford Junior University
// All rights reserved.
//
// Redistribution and use in source and binary forms, with or without
// modification, are permitted provided that the following conditions are met:
//
// Redistributions of source code must retain the above copyright notice, this
// list of conditions and the following disclaimer.
// Redistributions in binary form must reproduce the above copyright notice,
// this list of conditions and the following disclaimer in the documentation
// and/or other materials provided with the distribution.
//
// THIS SOFTWARE IS PROVIDED BY THE COPYRIGHT HOLDERS AND CONTRIBUTORS "AS IS"
// AND ANY EXPRESS OR IMPLIED WARRANTIES, INCLUDING, BUT NOT LIMITED TO, THE
// IMPLIED WARRANTIES OF MERCHANTABILITY AND FITNESS FOR A PARTICULAR PURPOSE
// ARE DISCLAIMED. IN NO EVENT SHALL THE COPYRIGHT OWNER OR CONTRIBUTORS BE
// LIABLE FOR ANY DIRECT, INDIRECT, INCIDENTAL, SPECIAL, EXEMPLARY, OR
// CONSEQUENTIAL DAMAGES (INCLUDING, BUT NOT LIMITED TO, PROCUREMENT OF
// SUBSTITUTE GOODS OR SERVICES; LOSS OF USE, DATA, OR PROFITS; OR BUSINESS
// INTERRUPTION) HOWEVER CAUSED AND ON ANY THEORY OF LIABILITY, WHETHER IN
// CONTRACT, STRICT LIABILITY, OR TORT (INCLUDING NEGLIGENCE OR OTHERWISE)
// ARISING IN ANY WAY OUT OF THE USE OF THIS SOFTWARE, EVEN IF ADVISED OF THE
// POSSIBILITY OF SUCH DAMAGE.

// Dragonfly
//




vc_buf_size = 256;


wait_for_tail_credit = 0;

//
// Router architecture
//
vc_allocator = separable_input_first; 
sw_allocator = separable_input_first;
alloc_iters  = 1;

credit_delay   = 2;
routing_delay  = 0;
vc_alloc_delay = 1;
sw_alloc_delay = 1;
st_final_delay = 1;

input_speedup     = 1;
output_speedup    = 1;
internal_speedup  = 2.0;


warmup_periods = 3;
sim_count          = 1;

sample_period  = 10000;  



routing_function = min;
num_vcs     = 2;

priority = none;
traffic       = uniform; 


packet_size = 10;
injection_rate_uses_flits=1;

topology = dragonflynew;

k  = 4;
n  = 1;

watch_out=-;

injection_rate =0.01;
stats_out = dragonfly_1.m;
injection_rate =0.05;
stats_out = dragonfly_5.m;
injection_rate =0.1;
stats_out = dragonfly_10.m;
injection_rate =0.15;
stats_out = dragonfly_15.m;
injection_rate =0.2;
stats_out = dragonfly_20.m;
injection_rate =0.25;
stats_out = dragonfly_25.m;

END Configuration File: examples/dragonflyconfig
 Dragonfly 
 p = 4 n = 1
 each switch - total radix =  15
 # of switches = 264
 # of channels = 2904
 # of nodes ( size of network ) = 1056
 # of groups (_g) = 33
 # of routers per group (_a) = 8
Done links
Class 0:
Packet latency average = 141.266
	minimum = 14
	maximum = 220
Network latency average = 139.747
	minimum = 14
	maximum = 218
Slowest packet = 6071
Flit latency average = 130.225
	minimum = 5
	maximum = 209
Slowest flit = 1442530
Fragmentation average = 0.910946
	minimum = 0
	maximum = 21
Injected packet rate average = 0.0249913
	minimum = 0.0201 (at node 154)
	maximum = 0.0298 (at node 161)
Accepted packet rate average = 0.024636
	minimum = 0.0191 (at node 1053)
	maximum = 0.0293 (at node 387)
Injected flit rate average = 0.249798
	minimum = 0.201 (at node 154)
	maximum = 0.2978 (at node 161)
Accepted flit rate average= 0.246488
	minimum = 0.191 (at node 1053)
	maximum = 0.2936 (at node 387)
Injected packet length average = 9.99541
Accepted packet length average = 10.0052
Total in-flight flits = 36170 (0 measured)
latency change    = 1
throughput change = 1
Class 0:
Packet latency average = 141.258
	minimum = 14
	maximum = 227
Network latency average = 139.749
	minimum = 14
	maximum = 222
Slowest packet = 6071
Flit latency average = 130.222
	minimum = 5
	maximum = 213
Slowest flit = 4979830
Fragmentation average = 0.918405
	minimum = 0
	maximum = 23
Injected packet rate average = 0.0250107
	minimum = 0.0214 (at node 575)
	maximum = 0.02845 (at node 971)
Accepted packet rate average = 0.0248387
	minimum = 0.0212 (at node 1016)
	maximum = 0.0281 (at node 630)
Injected flit rate average = 0.250052
	minimum = 0.2139 (at node 575)
	maximum = 0.2845 (at node 971)
Accepted flit rate average= 0.248446
	minimum = 0.212 (at node 1016)
	maximum = 0.2813 (at node 630)
Injected packet length average = 9.99782
Accepted packet length average = 10.0024
Total in-flight flits = 35065 (0 measured)
latency change    = 5.36739e-05
throughput change = 0.00788327
Class 0:
Packet latency average = 141.296
	minimum = 14
	maximum = 223
Network latency average = 139.807
	minimum = 14
	maximum = 219
Slowest packet = 549715
Flit latency average = 130.284
	minimum = 5
	maximum = 210
Slowest flit = 7377160
Fragmentation average = 0.916302
	minimum = 0
	maximum = 23
Injected packet rate average = 0.025117
	minimum = 0.0201 (at node 980)
	maximum = 0.0302 (at node 630)
Accepted packet rate average = 0.0251039
	minimum = 0.0202 (at node 430)
	maximum = 0.0311 (at node 39)
Injected flit rate average = 0.251168
	minimum = 0.201 (at node 980)
	maximum = 0.3027 (at node 882)
Accepted flit rate average= 0.251039
	minimum = 0.202 (at node 430)
	maximum = 0.311 (at node 39)
Injected packet length average = 9.99995
Accepted packet length average = 10
Total in-flight flits = 36440 (0 measured)
latency change    = 0.000270343
throughput change = 0.0103292
Warmed up ...Time used is 30000 cycles
Class 0:
Packet latency average = 141.239
	minimum = 14
	maximum = 226
Network latency average = 139.757
	minimum = 14
	maximum = 226
Slowest packet = 1050074
Flit latency average = 130.287
	minimum = 5
	maximum = 217
Slowest flit = 7884890
Fragmentation average = 0.912382
	minimum = 0
	maximum = 23
Injected packet rate average = 0.0249731
	minimum = 0.0201 (at node 810)
	maximum = 0.0303 (at node 199)
Accepted packet rate average = 0.0249796
	minimum = 0.0202 (at node 1049)
	maximum = 0.0298 (at node 624)
Injected flit rate average = 0.249712
	minimum = 0.201 (at node 810)
	maximum = 0.303 (at node 199)
Accepted flit rate average= 0.249799
	minimum = 0.202 (at node 1049)
	maximum = 0.298 (at node 624)
Injected packet length average = 9.99923
Accepted packet length average = 10.0001
Total in-flight flits = 35719 (35719 measured)
latency change    = 0.000409255
throughput change = 0.00496383
Class 0:
Packet latency average = 141.23
	minimum = 14
	maximum = 236
Network latency average = 139.736
	minimum = 14
	maximum = 233
Slowest packet = 1140616
Flit latency average = 130.241
	minimum = 5
	maximum = 224
Slowest flit = 11406160
Fragmentation average = 0.909623
	minimum = 0
	maximum = 23
Injected packet rate average = 0.0249785
	minimum = 0.02195 (at node 165)
	maximum = 0.0284 (at node 878)
Accepted packet rate average = 0.0249898
	minimum = 0.0216 (at node 400)
	maximum = 0.0283 (at node 499)
Injected flit rate average = 0.249792
	minimum = 0.21975 (at node 165)
	maximum = 0.284 (at node 878)
Accepted flit rate average= 0.249898
	minimum = 0.2156 (at node 400)
	maximum = 0.283 (at node 499)
Injected packet length average = 10.0003
Accepted packet length average = 10
Total in-flight flits = 34044 (34044 measured)
latency change    = 6.47192e-05
throughput change = 0.000394858
Class 0:
Packet latency average = 141.266
	minimum = 14
	maximum = 236
Network latency average = 139.77
	minimum = 14
	maximum = 233
Slowest packet = 1140616
Flit latency average = 130.264
	minimum = 5
	maximum = 224
Slowest flit = 11406160
Fragmentation average = 0.912263
	minimum = 0
	maximum = 23
Injected packet rate average = 0.0250094
	minimum = 0.0223333 (at node 219)
	maximum = 0.0278 (at node 878)
Accepted packet rate average = 0.0250109
	minimum = 0.0217667 (at node 374)
	maximum = 0.0278667 (at node 796)
Injected flit rate average = 0.250094
	minimum = 0.223333 (at node 219)
	maximum = 0.278 (at node 878)
Accepted flit rate average= 0.250112
	minimum = 0.217467 (at node 400)
	maximum = 0.278667 (at node 796)
Injected packet length average = 9.99999
Accepted packet length average = 10.0001
Total in-flight flits = 35872 (35872 measured)
latency change    = 0.000260914
throughput change = 0.000855551
Draining all recorded packets ...
Draining remaining packets ...
Time taken is 60444 cycles
====== Overall Traffic Statistics ======
====== Traffic class 0 ======
Packet latency average = 141.282 (1 samples)
	minimum = 14 (1 samples)
	maximum = 236 (1 samples)
Network latency average = 139.785 (1 samples)
	minimum = 14 (1 samples)
	maximum = 233 (1 samples)
Flit latency average = 130.276 (1 samples)
	minimum = 5 (1 samples)
	maximum = 224 (1 samples)
Fragmentation average = 0.912425 (1 samples)
	minimum = 0 (1 samples)
	maximum = 23 (1 samples)
Injected packet rate average = 0.0250094 (1 samples)
	minimum = 0.0223333 (1 samples)
	maximum = 0.0278 (1 samples)
Accepted packet rate average = 0.0250109 (1 samples)
	minimum = 0.0217667 (1 samples)
	maximum = 0.0278667 (1 samples)
Injected flit rate average = 0.250094 (1 samples)
	minimum = 0.223333 (1 samples)
	maximum = 0.278 (1 samples)
Accepted flit rate average = 0.250112 (1 samples)
	minimum = 0.217467 (1 samples)
	maximum = 0.278667 (1 samples)
Injected packet size average = 9.99999 (1 samples)
Accepted packet size average = 10.0001 (1 samples)
Hops average = 3.69282 (1 samples)
Total run time 659.769
BEGIN Configuration File: examples/dragonflyconfig
// $Id$

// Copyright (c) 2007-2015, Trustees of The Leland Stanford Junior University
// All rights reserved.
//
// Redistribution and use in source and binary forms, with or without
// modification, are permitted provided that the following conditions are met:
//
// Redistributions of source code must retain the above copyright notice, this
// list of conditions and the following disclaimer.
// Redistributions in binary form must reproduce the above copyright notice,
// this list of conditions and the following disclaimer in the documentation
// and/or other materials provided with the distribution.
//
// THIS SOFTWARE IS PROVIDED BY THE COPYRIGHT HOLDERS AND CONTRIBUTORS "AS IS"
// AND ANY EXPRESS OR IMPLIED WARRANTIES, INCLUDING, BUT NOT LIMITED TO, THE
// IMPLIED WARRANTIES OF MERCHANTABILITY AND FITNESS FOR A PARTICULAR PURPOSE
// ARE DISCLAIMED. IN NO EVENT SHALL THE COPYRIGHT OWNER OR CONTRIBUTORS BE
// LIABLE FOR ANY DIRECT, INDIRECT, INCIDENTAL, SPECIAL, EXEMPLARY, OR
// CONSEQUENTIAL DAMAGES (INCLUDING, BUT NOT LIMITED TO, PROCUREMENT OF
// SUBSTITUTE GOODS OR SERVICES; LOSS OF USE, DATA, OR PROFITS; OR BUSINESS
// INTERRUPTION) HOWEVER CAUSED AND ON ANY THEORY OF LIABILITY, WHETHER IN
// CONTRACT, STRICT LIABILITY, OR TORT (INCLUDING NEGLIGENCE OR OTHERWISE)
// ARISING IN ANY WAY OUT OF THE USE OF THIS SOFTWARE, EVEN IF ADVISED OF THE
// POSSIBILITY OF SUCH DAMAGE.

// Dragonfly
//




vc_buf_size = 256;


wait_for_tail_credit = 0;

//
// Router architecture
//
vc_allocator = separable_input_first; 
sw_allocator = separable_input_first;
alloc_iters  = 1;

credit_delay   = 2;
routing_delay  = 0;
vc_alloc_delay = 1;
sw_alloc_delay = 1;
st_final_delay = 1;

input_speedup     = 1;
output_speedup    = 1;
internal_speedup  = 2.0;


warmup_periods = 3;
sim_count          = 1;

sample_period  = 10000;  



routing_function = min;
num_vcs     = 2;

priority = none;
traffic       = uniform; 


packet_size = 10;
injection_rate_uses_flits=1;

topology = dragonflynew;

k  = 4;
n  = 1;

watch_out=-;

injection_rate =0.01;
stats_out = dragonfly_1.m;
injection_rate =0.05;
stats_out = dragonfly_5.m;
injection_rate =0.1;
stats_out = dragonfly_10.m;
injection_rate =0.15;
stats_out = dragonfly_15.m;
injection_rate =0.2;
stats_out = dragonfly_20.m;
injection_rate =0.25;
stats_out = dragonfly_25.m;
injection_rate =0.3;
stats_out = dragonfly_30.m;

END Configuration File: examples/dragonflyconfig
 Dragonfly 
 p = 4 n = 1
 each switch - total radix =  15
 # of switches = 264
 # of channels = 2904
 # of nodes ( size of network ) = 1056
 # of groups (_g) = 33
 # of routers per group (_a) = 8
Done links
Class 0:
Packet latency average = 143.468
	minimum = 14
	maximum = 249
Network latency average = 141.54
	minimum = 14
	maximum = 241
Slowest packet = 191690
Flit latency average = 131.959
	minimum = 5
	maximum = 232
Slowest flit = 1916900
Fragmentation average = 1.01545
	minimum = 0
	maximum = 24
Injected packet rate average = 0.0300229
	minimum = 0.0241 (at node 199)
	maximum = 0.0364 (at node 886)
Accepted packet rate average = 0.0295944
	minimum = 0.0242 (at node 377)
	maximum = 0.0358 (at node 298)
Injected flit rate average = 0.30009
	minimum = 0.2405 (at node 199)
	maximum = 0.3632 (at node 886)
Accepted flit rate average= 0.296094
	minimum = 0.242 (at node 377)
	maximum = 0.358 (at node 298)
Injected packet length average = 9.99536
Accepted packet length average = 10.0051
Total in-flight flits = 43664 (0 measured)
latency change    = 1
throughput change = 1
Class 0:
Packet latency average = 143.481
	minimum = 14
	maximum = 249
Network latency average = 141.556
	minimum = 14
	maximum = 241
Slowest packet = 191690
Flit latency average = 131.971
	minimum = 5
	maximum = 232
Slowest flit = 1916900
Fragmentation average = 1.02228
	minimum = 0
	maximum = 24
Injected packet rate average = 0.030025
	minimum = 0.0256 (at node 199)
	maximum = 0.03385 (at node 502)
Accepted packet rate average = 0.0298137
	minimum = 0.02635 (at node 48)
	maximum = 0.0344 (at node 147)
Injected flit rate average = 0.300183
	minimum = 0.256 (at node 199)
	maximum = 0.3385 (at node 502)
Accepted flit rate average= 0.298212
	minimum = 0.2635 (at node 48)
	maximum = 0.344 (at node 147)
Injected packet length average = 9.99778
Accepted packet length average = 10.0025
Total in-flight flits = 43050 (0 measured)
latency change    = 9.29871e-05
throughput change = 0.00710009
Class 0:
Packet latency average = 143.711
	minimum = 14
	maximum = 262
Network latency average = 141.786
	minimum = 14
	maximum = 246
Slowest packet = 684915
Flit latency average = 132.202
	minimum = 5
	maximum = 237
Slowest flit = 6849150
Fragmentation average = 1.0181
	minimum = 0
	maximum = 24
Injected packet rate average = 0.0301304
	minimum = 0.0251 (at node 252)
	maximum = 0.0351 (at node 755)
Accepted packet rate average = 0.0301177
	minimum = 0.0246 (at node 1045)
	maximum = 0.0358 (at node 333)
Injected flit rate average = 0.301308
	minimum = 0.2517 (at node 252)
	maximum = 0.3508 (at node 755)
Accepted flit rate average= 0.30118
	minimum = 0.246 (at node 1045)
	maximum = 0.3589 (at node 333)
Injected packet length average = 10.0001
Accepted packet length average = 10.0001
Total in-flight flits = 44355 (0 measured)
latency change    = 0.00159637
throughput change = 0.00985705
Warmed up ...Time used is 30000 cycles
Class 0:
Packet latency average = 143.547
	minimum = 14
	maximum = 257
Network latency average = 141.627
	minimum = 14
	maximum = 248
Slowest packet = 1110637
Flit latency average = 132.102
	minimum = 5
	maximum = 239
Slowest flit = 11106370
Fragmentation average = 1.01717
	minimum = 0
	maximum = 25
Injected packet rate average = 0.0299675
	minimum = 0.0247 (at node 634)
	maximum = 0.0349 (at node 748)
Accepted packet rate average = 0.0299777
	minimum = 0.0249 (at node 430)
	maximum = 0.0356 (at node 298)
Injected flit rate average = 0.299658
	minimum = 0.247 (at node 634)
	maximum = 0.349 (at node 748)
Accepted flit rate average= 0.299787
	minimum = 0.249 (at node 430)
	maximum = 0.356 (at node 298)
Injected packet length average = 9.99943
Accepted packet length average = 10.0003
Total in-flight flits = 43179 (43179 measured)
latency change    = 0.00114119
throughput change = 0.00464946
Class 0:
Packet latency average = 143.543
	minimum = 14
	maximum = 257
Network latency average = 141.608
	minimum = 14
	maximum = 248
Slowest packet = 1110637
Flit latency average = 132.05
	minimum = 5
	maximum = 239
Slowest flit = 11106370
Fragmentation average = 1.02457
	minimum = 0
	maximum = 25
Injected packet rate average = 0.0299592
	minimum = 0.0261 (at node 117)
	maximum = 0.0334 (at node 712)
Accepted packet rate average = 0.0299718
	minimum = 0.0256 (at node 76)
	maximum = 0.0339 (at node 298)
Injected flit rate average = 0.299595
	minimum = 0.26085 (at node 117)
	maximum = 0.334 (at node 712)
Accepted flit rate average= 0.299718
	minimum = 0.2561 (at node 76)
	maximum = 0.33925 (at node 298)
Injected packet length average = 10.0001
Accepted packet length average = 9.99999
Total in-flight flits = 41710 (41710 measured)
latency change    = 2.88148e-05
throughput change = 0.000230173
Class 0:
Packet latency average = 143.535
	minimum = 14
	maximum = 261
Network latency average = 141.606
	minimum = 14
	maximum = 260
Slowest packet = 1630773
Flit latency average = 132.038
	minimum = 5
	maximum = 251
Slowest flit = 16307730
Fragmentation average = 1.02561
	minimum = 0
	maximum = 25
Injected packet rate average = 0.0299894
	minimum = 0.0269333 (at node 781)
	maximum = 0.0326 (at node 712)
Accepted packet rate average = 0.0299917
	minimum = 0.0265333 (at node 76)
	maximum = 0.0340667 (at node 298)
Injected flit rate average = 0.299893
	minimum = 0.269367 (at node 781)
	maximum = 0.325867 (at node 712)
Accepted flit rate average= 0.299918
	minimum = 0.265433 (at node 76)
	maximum = 0.340767 (at node 298)
Injected packet length average = 9.99997
Accepted packet length average = 10
Total in-flight flits = 43589 (43589 measured)
latency change    = 5.45288e-05
throughput change = 0.000669742
Draining all recorded packets ...
Draining remaining packets ...
Time taken is 60451 cycles
====== Overall Traffic Statistics ======
====== Traffic class 0 ======
Packet latency average = 143.554 (1 samples)
	minimum = 14 (1 samples)
	maximum = 261 (1 samples)
Network latency average = 141.624 (1 samples)
	minimum = 14 (1 samples)
	maximum = 260 (1 samples)
Flit latency average = 132.05 (1 samples)
	minimum = 5 (1 samples)
	maximum = 251 (1 samples)
Fragmentation average = 1.02586 (1 samples)
	minimum = 0 (1 samples)
	maximum = 25 (1 samples)
Injected packet rate average = 0.0299894 (1 samples)
	minimum = 0.0269333 (1 samples)
	maximum = 0.0326 (1 samples)
Accepted packet rate average = 0.0299917 (1 samples)
	minimum = 0.0265333 (1 samples)
	maximum = 0.0340667 (1 samples)
Injected flit rate average = 0.299893 (1 samples)
	minimum = 0.269367 (1 samples)
	maximum = 0.325867 (1 samples)
Accepted flit rate average = 0.299918 (1 samples)
	minimum = 0.265433 (1 samples)
	maximum = 0.340767 (1 samples)
Injected packet size average = 9.99997 (1 samples)
Accepted packet size average = 10 (1 samples)
Hops average = 3.69276 (1 samples)
Total run time 735.437
BEGIN Configuration File: examples/dragonflyconfig
// $Id$

// Copyright (c) 2007-2015, Trustees of The Leland Stanford Junior University
// All rights reserved.
//
// Redistribution and use in source and binary forms, with or without
// modification, are permitted provided that the following conditions are met:
//
// Redistributions of source code must retain the above copyright notice, this
// list of conditions and the following disclaimer.
// Redistributions in binary form must reproduce the above copyright notice,
// this list of conditions and the following disclaimer in the documentation
// and/or other materials provided with the distribution.
//
// THIS SOFTWARE IS PROVIDED BY THE COPYRIGHT HOLDERS AND CONTRIBUTORS "AS IS"
// AND ANY EXPRESS OR IMPLIED WARRANTIES, INCLUDING, BUT NOT LIMITED TO, THE
// IMPLIED WARRANTIES OF MERCHANTABILITY AND FITNESS FOR A PARTICULAR PURPOSE
// ARE DISCLAIMED. IN NO EVENT SHALL THE COPYRIGHT OWNER OR CONTRIBUTORS BE
// LIABLE FOR ANY DIRECT, INDIRECT, INCIDENTAL, SPECIAL, EXEMPLARY, OR
// CONSEQUENTIAL DAMAGES (INCLUDING, BUT NOT LIMITED TO, PROCUREMENT OF
// SUBSTITUTE GOODS OR SERVICES; LOSS OF USE, DATA, OR PROFITS; OR BUSINESS
// INTERRUPTION) HOWEVER CAUSED AND ON ANY THEORY OF LIABILITY, WHETHER IN
// CONTRACT, STRICT LIABILITY, OR TORT (INCLUDING NEGLIGENCE OR OTHERWISE)
// ARISING IN ANY WAY OUT OF THE USE OF THIS SOFTWARE, EVEN IF ADVISED OF THE
// POSSIBILITY OF SUCH DAMAGE.

// Dragonfly
//




vc_buf_size = 256;


wait_for_tail_credit = 0;

//
// Router architecture
//
vc_allocator = separable_input_first; 
sw_allocator = separable_input_first;
alloc_iters  = 1;

credit_delay   = 2;
routing_delay  = 0;
vc_alloc_delay = 1;
sw_alloc_delay = 1;
st_final_delay = 1;

input_speedup     = 1;
output_speedup    = 1;
internal_speedup  = 2.0;


warmup_periods = 3;
sim_count          = 1;

sample_period  = 10000;  



routing_function = min;
num_vcs     = 2;

priority = none;
traffic       = uniform; 


packet_size = 10;
injection_rate_uses_flits=1;

topology = dragonflynew;

k  = 4;
n  = 1;

watch_out=-;

injection_rate =0.01;
stats_out = dragonfly_1.m;
injection_rate =0.05;
stats_out = dragonfly_5.m;
injection_rate =0.1;
stats_out = dragonfly_10.m;
injection_rate =0.15;
stats_out = dragonfly_15.m;
injection_rate =0.2;
stats_out = dragonfly_20.m;
injection_rate =0.25;
stats_out = dragonfly_25.m;
injection_rate =0.3;
stats_out = dragonfly_30.m;
injection_rate =0.35;
stats_out = dragonfly_35.m;

END Configuration File: examples/dragonflyconfig
 Dragonfly 
 p = 4 n = 1
 each switch - total radix =  15
 # of switches = 264
 # of channels = 2904
 # of nodes ( size of network ) = 1056
 # of groups (_g) = 33
 # of routers per group (_a) = 8
Done links
Class 0:
Packet latency average = 146.209
	minimum = 14
	maximum = 264
Network latency average = 143.789
	minimum = 14
	maximum = 263
Slowest packet = 117182
Flit latency average = 134.156
	minimum = 5
	maximum = 254
Slowest flit = 1171820
Fragmentation average = 1.1052
	minimum = 0
	maximum = 23
Injected packet rate average = 0.035017
	minimum = 0.0286 (at node 383)
	maximum = 0.0409 (at node 332)
Accepted packet rate average = 0.034507
	minimum = 0.0286 (at node 548)
	maximum = 0.0403 (at node 916)
Injected flit rate average = 0.350006
	minimum = 0.2853 (at node 383)
	maximum = 0.409 (at node 332)
Accepted flit rate average= 0.345251
	minimum = 0.2867 (at node 548)
	maximum = 0.403 (at node 916)
Injected packet length average = 9.99531
Accepted packet length average = 10.0053
Total in-flight flits = 51945 (0 measured)
latency change    = 1
throughput change = 1
Class 0:
Packet latency average = 146.262
	minimum = 14
	maximum = 266
Network latency average = 143.843
	minimum = 14
	maximum = 263
Slowest packet = 117182
Flit latency average = 134.21
	minimum = 5
	maximum = 254
Slowest flit = 1171820
Fragmentation average = 1.10517
	minimum = 0
	maximum = 25
Injected packet rate average = 0.0350434
	minimum = 0.031 (at node 7)
	maximum = 0.03975 (at node 332)
Accepted packet rate average = 0.0347906
	minimum = 0.03115 (at node 317)
	maximum = 0.0391 (at node 301)
Injected flit rate average = 0.350353
	minimum = 0.3098 (at node 7)
	maximum = 0.3975 (at node 332)
Accepted flit rate average= 0.348
	minimum = 0.3115 (at node 317)
	maximum = 0.3912 (at node 301)
Injected packet length average = 9.9977
Accepted packet length average = 10.0027
Total in-flight flits = 51395 (0 measured)
latency change    = 0.000364314
throughput change = 0.00789889
Class 0:
Packet latency average = 146.285
	minimum = 14
	maximum = 262
Network latency average = 143.84
	minimum = 14
	maximum = 259
Slowest packet = 785791
Flit latency average = 134.205
	minimum = 5
	maximum = 250
Slowest flit = 8042300
Fragmentation average = 1.11076
	minimum = 0
	maximum = 25
Injected packet rate average = 0.0351009
	minimum = 0.0281 (at node 468)
	maximum = 0.0414 (at node 62)
Accepted packet rate average = 0.0350931
	minimum = 0.0294 (at node 924)
	maximum = 0.0403 (at node 217)
Injected flit rate average = 0.351011
	minimum = 0.2805 (at node 468)
	maximum = 0.414 (at node 62)
Accepted flit rate average= 0.350918
	minimum = 0.2934 (at node 924)
	maximum = 0.403 (at node 217)
Injected packet length average = 10
Accepted packet length average = 9.99962
Total in-flight flits = 52365 (0 measured)
latency change    = 0.000157435
throughput change = 0.00831357
Warmed up ...Time used is 30000 cycles
Class 0:
Packet latency average = 146.216
	minimum = 14
	maximum = 267
Network latency average = 143.794
	minimum = 14
	maximum = 260
Slowest packet = 1290462
Flit latency average = 134.228
	minimum = 5
	maximum = 251
Slowest flit = 12904620
Fragmentation average = 1.10001
	minimum = 0
	maximum = 23
Injected packet rate average = 0.0349892
	minimum = 0.0296 (at node 371)
	maximum = 0.0406 (at node 393)
Accepted packet rate average = 0.0350024
	minimum = 0.0295 (at node 347)
	maximum = 0.0421 (at node 50)
Injected flit rate average = 0.34988
	minimum = 0.296 (at node 371)
	maximum = 0.4051 (at node 393)
Accepted flit rate average= 0.350028
	minimum = 0.295 (at node 347)
	maximum = 0.421 (at node 50)
Injected packet length average = 9.99967
Accepted packet length average = 10.0001
Total in-flight flits = 50931 (50931 measured)
latency change    = 0.000472387
throughput change = 0.00254201
Class 0:
Packet latency average = 146.23
	minimum = 14
	maximum = 267
Network latency average = 143.809
	minimum = 14
	maximum = 260
Slowest packet = 1290462
Flit latency average = 134.209
	minimum = 5
	maximum = 251
Slowest flit = 12904620
Fragmentation average = 1.10483
	minimum = 0
	maximum = 25
Injected packet rate average = 0.0349841
	minimum = 0.0313 (at node 875)
	maximum = 0.0388 (at node 277)
Accepted packet rate average = 0.0349979
	minimum = 0.03135 (at node 622)
	maximum = 0.03885 (at node 332)
Injected flit rate average = 0.349852
	minimum = 0.3134 (at node 875)
	maximum = 0.3884 (at node 277)
Accepted flit rate average= 0.349978
	minimum = 0.3135 (at node 622)
	maximum = 0.3885 (at node 332)
Injected packet length average = 10.0003
Accepted packet length average = 9.99998
Total in-flight flits = 49467 (49467 measured)
latency change    = 9.48995e-05
throughput change = 0.000142054
Class 0:
Packet latency average = 146.251
	minimum = 14
	maximum = 267
Network latency average = 143.83
	minimum = 14
	maximum = 260
Slowest packet = 1290462
Flit latency average = 134.22
	minimum = 5
	maximum = 251
Slowest flit = 12904620
Fragmentation average = 1.10542
	minimum = 0
	maximum = 25
Injected packet rate average = 0.0350093
	minimum = 0.0318 (at node 565)
	maximum = 0.0384333 (at node 188)
Accepted packet rate average = 0.0350114
	minimum = 0.0311667 (at node 853)
	maximum = 0.0382333 (at node 580)
Injected flit rate average = 0.350094
	minimum = 0.318033 (at node 565)
	maximum = 0.384133 (at node 188)
Accepted flit rate average= 0.350114
	minimum = 0.311667 (at node 853)
	maximum = 0.382333 (at node 580)
Injected packet length average = 10
Accepted packet length average = 10
Total in-flight flits = 51697 (51697 measured)
latency change    = 0.000143868
throughput change = 0.000388672
Draining all recorded packets ...
Draining remaining packets ...
Time taken is 60465 cycles
====== Overall Traffic Statistics ======
====== Traffic class 0 ======
Packet latency average = 146.272 (1 samples)
	minimum = 14 (1 samples)
	maximum = 267 (1 samples)
Network latency average = 143.851 (1 samples)
	minimum = 14 (1 samples)
	maximum = 260 (1 samples)
Flit latency average = 134.236 (1 samples)
	minimum = 5 (1 samples)
	maximum = 251 (1 samples)
Fragmentation average = 1.1055 (1 samples)
	minimum = 0 (1 samples)
	maximum = 25 (1 samples)
Injected packet rate average = 0.0350093 (1 samples)
	minimum = 0.0318 (1 samples)
	maximum = 0.0384333 (1 samples)
Accepted packet rate average = 0.0350114 (1 samples)
	minimum = 0.0311667 (1 samples)
	maximum = 0.0382333 (1 samples)
Injected flit rate average = 0.350094 (1 samples)
	minimum = 0.318033 (1 samples)
	maximum = 0.384133 (1 samples)
Accepted flit rate average = 0.350114 (1 samples)
	minimum = 0.311667 (1 samples)
	maximum = 0.382333 (1 samples)
Injected packet size average = 10 (1 samples)
Accepted packet size average = 10 (1 samples)
Hops average = 3.69286 (1 samples)
Total run time 969.977
BEGIN Configuration File: examples/dragonflyconfig
// $Id$

// Copyright (c) 2007-2015, Trustees of The Leland Stanford Junior University
// All rights reserved.
//
// Redistribution and use in source and binary forms, with or without
// modification, are permitted provided that the following conditions are met:
//
// Redistributions of source code must retain the above copyright notice, this
// list of conditions and the following disclaimer.
// Redistributions in binary form must reproduce the above copyright notice,
// this list of conditions and the following disclaimer in the documentation
// and/or other materials provided with the distribution.
//
// THIS SOFTWARE IS PROVIDED BY THE COPYRIGHT HOLDERS AND CONTRIBUTORS "AS IS"
// AND ANY EXPRESS OR IMPLIED WARRANTIES, INCLUDING, BUT NOT LIMITED TO, THE
// IMPLIED WARRANTIES OF MERCHANTABILITY AND FITNESS FOR A PARTICULAR PURPOSE
// ARE DISCLAIMED. IN NO EVENT SHALL THE COPYRIGHT OWNER OR CONTRIBUTORS BE
// LIABLE FOR ANY DIRECT, INDIRECT, INCIDENTAL, SPECIAL, EXEMPLARY, OR
// CONSEQUENTIAL DAMAGES (INCLUDING, BUT NOT LIMITED TO, PROCUREMENT OF
// SUBSTITUTE GOODS OR SERVICES; LOSS OF USE, DATA, OR PROFITS; OR BUSINESS
// INTERRUPTION) HOWEVER CAUSED AND ON ANY THEORY OF LIABILITY, WHETHER IN
// CONTRACT, STRICT LIABILITY, OR TORT (INCLUDING NEGLIGENCE OR OTHERWISE)
// ARISING IN ANY WAY OUT OF THE USE OF THIS SOFTWARE, EVEN IF ADVISED OF THE
// POSSIBILITY OF SUCH DAMAGE.

// Dragonfly
//




vc_buf_size = 256;


wait_for_tail_credit = 0;

//
// Router architecture
//
vc_allocator = separable_input_first; 
sw_allocator = separable_input_first;
alloc_iters  = 1;

credit_delay   = 2;
routing_delay  = 0;
vc_alloc_delay = 1;
sw_alloc_delay = 1;
st_final_delay = 1;

input_speedup     = 1;
output_speedup    = 1;
internal_speedup  = 2.0;


warmup_periods = 3;
sim_count          = 1;

sample_period  = 10000;  



routing_function = min;
num_vcs     = 2;

priority = none;
traffic       = uniform; 


packet_size = 10;
injection_rate_uses_flits=1;

topology = dragonflynew;

k  = 4;
n  = 1;

watch_out=-;

injection_rate =0.01;
stats_out = dragonfly_1.m;
injection_rate =0.05;
stats_out = dragonfly_5.m;
injection_rate =0.1;
stats_out = dragonfly_10.m;
injection_rate =0.15;
stats_out = dragonfly_15.m;
injection_rate =0.2;
stats_out = dragonfly_20.m;
injection_rate =0.25;
stats_out = dragonfly_25.m;
injection_rate =0.3;
stats_out = dragonfly_30.m;
injection_rate =0.35;
stats_out = dragonfly_35.m;
injection_rate =0.4;
stats_out = dragonfly_40.m;

END Configuration File: examples/dragonflyconfig
 Dragonfly 
 p = 4 n = 1
 each switch - total radix =  15
 # of switches = 264
 # of channels = 2904
 # of nodes ( size of network ) = 1056
 # of groups (_g) = 33
 # of routers per group (_a) = 8
Done links
Class 0:
Packet latency average = 149.353
	minimum = 14
	maximum = 283
Network latency average = 146.36
	minimum = 14
	maximum = 283
Slowest packet = 354988
Flit latency average = 136.7
	minimum = 5
	maximum = 274
Slowest flit = 3549880
Fragmentation average = 1.1537
	minimum = 0
	maximum = 24
Injected packet rate average = 0.0399949
	minimum = 0.0335 (at node 761)
	maximum = 0.0464 (at node 486)
Accepted packet rate average = 0.0394035
	minimum = 0.0328 (at node 589)
	maximum = 0.0454 (at node 596)
Injected flit rate average = 0.399762
	minimum = 0.335 (at node 761)
	maximum = 0.4635 (at node 486)
Accepted flit rate average= 0.394232
	minimum = 0.328 (at node 589)
	maximum = 0.454 (at node 596)
Injected packet length average = 9.99533
Accepted packet length average = 10.005
Total in-flight flits = 60372 (0 measured)
latency change    = 1
throughput change = 1
Class 0:
Packet latency average = 149.384
	minimum = 14
	maximum = 283
Network latency average = 146.383
	minimum = 14
	maximum = 283
Slowest packet = 354988
Flit latency average = 136.72
	minimum = 5
	maximum = 274
Slowest flit = 3549880
Fragmentation average = 1.16139
	minimum = 0
	maximum = 25
Injected packet rate average = 0.0400402
	minimum = 0.0357 (at node 396)
	maximum = 0.0448 (at node 664)
Accepted packet rate average = 0.0397451
	minimum = 0.03555 (at node 525)
	maximum = 0.04415 (at node 602)
Injected flit rate average = 0.40031
	minimum = 0.357 (at node 396)
	maximum = 0.448 (at node 664)
Accepted flit rate average= 0.397552
	minimum = 0.35565 (at node 525)
	maximum = 0.44185 (at node 602)
Injected packet length average = 9.99771
Accepted packet length average = 10.0025
Total in-flight flits = 60185 (0 measured)
latency change    = 0.000210041
throughput change = 0.00835236
Class 0:
Packet latency average = 149.467
	minimum = 14
	maximum = 275
Network latency average = 146.436
	minimum = 14
	maximum = 269
Slowest packet = 1022235
Flit latency average = 136.772
	minimum = 5
	maximum = 260
Slowest flit = 10222359
Fragmentation average = 1.1588
	minimum = 0
	maximum = 25
Injected packet rate average = 0.0401129
	minimum = 0.0344 (at node 33)
	maximum = 0.0488 (at node 611)
Accepted packet rate average = 0.040114
	minimum = 0.0344 (at node 550)
	maximum = 0.0468 (at node 202)
Injected flit rate average = 0.401133
	minimum = 0.3449 (at node 33)
	maximum = 0.4875 (at node 611)
Accepted flit rate average= 0.401139
	minimum = 0.344 (at node 550)
	maximum = 0.4676 (at node 202)
Injected packet length average = 10.0001
Accepted packet length average = 9.99997
Total in-flight flits = 60077 (0 measured)
latency change    = 0.000551441
throughput change = 0.00894128
Warmed up ...Time used is 30000 cycles
Class 0:
Packet latency average = 149.298
	minimum = 14
	maximum = 284
Network latency average = 146.297
	minimum = 14
	maximum = 272
Slowest packet = 1333799
Flit latency average = 136.69
	minimum = 5
	maximum = 263
Slowest flit = 13337990
Fragmentation average = 1.16277
	minimum = 0
	maximum = 24
Injected packet rate average = 0.0399955
	minimum = 0.0341 (at node 127)
	maximum = 0.0456 (at node 40)
Accepted packet rate average = 0.0400041
	minimum = 0.034 (at node 185)
	maximum = 0.0467 (at node 101)
Injected flit rate average = 0.399958
	minimum = 0.3409 (at node 127)
	maximum = 0.4555 (at node 40)
Accepted flit rate average= 0.400042
	minimum = 0.3396 (at node 185)
	maximum = 0.467 (at node 101)
Injected packet length average = 10.0001
Accepted packet length average = 10
Total in-flight flits = 59153 (59153 measured)
latency change    = 0.00113044
throughput change = 0.00274214
Class 0:
Packet latency average = 149.412
	minimum = 14
	maximum = 284
Network latency average = 146.413
	minimum = 14
	maximum = 277
Slowest packet = 1333799
Flit latency average = 136.778
	minimum = 5
	maximum = 268
Slowest flit = 18079280
Fragmentation average = 1.15935
	minimum = 0
[...]
Draining all recorded packets ...
Draining remaining packets ...
Time taken is 61033 cycles
====== Overall Traffic Statistics ======
====== Traffic class 0 ======
Packet latency average = 235.104 (1 samples)
	minimum = 14 (1 samples)
	maximum = 1074 (1 samples)
Network latency average = 217.036 (1 samples)
	minimum = 14 (1 samples)
	maximum = 965 (1 samples)
Flit latency average = 207.654 (1 samples)
	minimum = 5 (1 samples)
	maximum = 956 (1 samples)
Fragmentation average = 0.825995 (1 samples)
	minimum = 0 (1 samples)
	maximum = 27 (1 samples)
Injected packet rate average = 0.0799932 (1 samples)
	minimum = 0.0743667 (1 samples)
	maximum = 0.0847 (1 samples)
Accepted packet rate average = 0.0799928 (1 samples)
	minimum = 0.0749667 (1 samples)
	maximum = 0.0853 (1 samples)
Injected flit rate average = 0.79993 (1 samples)
	minimum = 0.743433 (1 samples)
	maximum = 0.846733 (1 samples)
Accepted flit rate average = 0.79993 (1 samples)
	minimum = 0.749433 (1 samples)
	maximum = 0.853033 (1 samples)
Injected packet size average = 9.99997 (1 samples)
Accepted packet size average = 10 (1 samples)
Hops average = 3.693 (1 samples)
Total run time 2094.56
BEGIN Configuration File: examples/dragonflyconfig
// $Id$

// Copyright (c) 2007-2015, Trustees of The Leland Stanford Junior University
// All rights reserved.
//
// Redistribution and use in source and binary forms, with or without
// modification, are permitted provided that the following conditions are met:
//
// Redistributions of source code must retain the above copyright notice, this
// list of conditions and the following disclaimer.
// Redistributions in binary form must reproduce the above copyright notice,
// this list of conditions and the following disclaimer in the documentation
// and/or other materials provided with the distribution.
//
// THIS SOFTWARE IS PROVIDED BY THE COPYRIGHT HOLDERS AND CONTRIBUTORS "AS IS"
// AND ANY EXPRESS OR IMPLIED WARRANTIES, INCLUDING, BUT NOT LIMITED TO, THE
// IMPLIED WARRANTIES OF MERCHANTABILITY AND FITNESS FOR A PARTICULAR PURPOSE
// ARE DISCLAIMED. IN NO EVENT SHALL THE COPYRIGHT OWNER OR CONTRIBUTORS BE
// LIABLE FOR ANY DIRECT, INDIRECT, INCIDENTAL, SPECIAL, EXEMPLARY, OR
// CONSEQUENTIAL DAMAGES (INCLUDING, BUT NOT LIMITED TO, PROCUREMENT OF
// SUBSTITUTE GOODS OR SERVICES; LOSS OF USE, DATA, OR PROFITS; OR BUSINESS
// INTERRUPTION) HOWEVER CAUSED AND ON ANY THEORY OF LIABILITY, WHETHER IN
// CONTRACT, STRICT LIABILITY, OR TORT (INCLUDING NEGLIGENCE OR OTHERWISE)
// ARISING IN ANY WAY OUT OF THE USE OF THIS SOFTWARE, EVEN IF ADVISED OF THE
// POSSIBILITY OF SUCH DAMAGE.

// Dragonfly
//




vc_buf_size = 256;


wait_for_tail_credit = 0;

//
// Router architecture
//
vc_allocator = separable_input_first; 
sw_allocator = separable_input_first;
alloc_iters  = 1;

credit_delay   = 2;
routing_delay  = 0;
vc_alloc_delay = 1;
sw_alloc_delay = 1;
st_final_delay = 1;

input_speedup     = 1;
output_speedup    = 1;
internal_speedup  = 2.0;


warmup_periods = 3;
sim_count          = 1;

sample_period  = 10000;  



routing_function = min;
num_vcs     = 2;

priority = none;
traffic       = uniform; 


packet_size = 10;
injection_rate_uses_flits=1;

topology = dragonflynew;

k  = 4;
n  = 1;

watch_out=-;

injection_rate =0.01;
stats_out = dragonfly_1.m;
injection_rate =0.05;
stats_out = dragonfly_5.m;
injection_rate =0.1;
stats_out = dragonfly_10.m;
injection_rate =0.15;
stats_out = dragonfly_15.m;
injection_rate =0.2;
stats_out = dragonfly_20.m;
injection_rate =0.25;
stats_out = dragonfly_25.m;
injection_rate =0.3;
stats_out = dragonfly_30.m;
injection_rate =0.35;
stats_out = dragonfly_35.m;
injection_rate =0.4;
stats_out = dragonfly_40.m;
injection_rate =0.45;
stats_out = dragonfly_45.m;
injection_rate =0.5;
stats_out = dragonfly_50.m;
injection_rate =0.55;
stats_out = dragonfly_55.m;
injection_rate =0.6;
stats_out = dragonfly_60.m;
injection_rate =0.65;
stats_out = dragonfly_65.m;
injection_rate =0.7;
stats_out = dragonfly_70.m;
injection_rate =0.75;
stats_out = dragonfly_75.m;
injection_rate =0.8;
stats_out = dragonfly_80.m;
injection_rate =0.85;
stats_out = dragonfly_85.m;

END Configuration File: examples/dragonflyconfig
 Dragonfly 
 p = 4 n = 1
 each switch - total radix =  15
 # of switches = 264
 # of channels = 2904
 # of nodes ( size of network ) = 1056
 # of groups (_g) = 33
 # of routers per group (_a) = 8
Done links
Class 0:
Packet latency average = 282.296
	minimum = 14
	maximum = 1619
Network latency average = 257.035
	minimum = 14
	maximum = 1600
Slowest packet = 607748
Flit latency average = 247.628
	minimum = 5
	maximum = 1591
Slowest flit = 6077480
Fragmentation average = 0.752887
	minimum = 0
	maximum = 26
Injected packet rate average = 0.0847676
	minimum = 0.0767 (at node 270)
	maximum = 0.0941 (at node 878)
Accepted packet rate average = 0.0824233
	minimum = 0.074 (at node 808)
	maximum = 0.0937 (at node 25)
Injected flit rate average = 0.847274
	minimum = 0.7661 (at node 270)
	maximum = 0.9406 (at node 878)
Accepted flit rate average= 0.82466
	minimum = 0.7404 (at node 808)
	maximum = 0.9372 (at node 25)
Injected packet length average = 9.99525
Accepted packet length average = 10.0052
Total in-flight flits = 243054 (0 measured)
latency change    = 1
throughput change = 1
Class 0:
Packet latency average = 288.989
	minimum = 14
	maximum = 1872
Network latency average = 263.476
	minimum = 14
	maximum = 1709
Slowest packet = 1040544
Flit latency average = 254.075
	minimum = 5
	maximum = 1700
Slowest flit = 10405440
Fragmentation average = 0.732481
	minimum = 0
	maximum = 27
Injected packet rate average = 0.084917
	minimum = 0.07915 (at node 334)
	maximum = 0.09155 (at node 452)
Accepted packet rate average = 0.0837771
	minimum = 0.07685 (at node 400)
	maximum = 0.09085 (at node 748)
Injected flit rate average = 0.848981
	minimum = 0.7912 (at node 334)
	maximum = 0.9155 (at node 452)
Accepted flit rate average= 0.837986
	minimum = 0.7688 (at node 400)
	maximum = 0.9085 (at node 748)
Injected packet length average = 9.99778
Accepted packet length average = 10.0026
Total in-flight flits = 236195 (0 measured)
latency change    = 0.0231597
throughput change = 0.0159029
Class 0:
Packet latency average = 293.081
	minimum = 14
	maximum = 1996
Network latency average = 266.945
	minimum = 14
	maximum = 1709
Slowest packet = 1698719
Flit latency average = 257.553
	minimum = 5
	maximum = 1700
Slowest flit = 23138150
Fragmentation average = 0.711012
	minimum = 0
	maximum = 27
Injected packet rate average = 0.0850731
	minimum = 0.0739 (at node 990)
	maximum = 0.0971 (at node 584)
Accepted packet rate average = 0.0851393
	minimum = 0.074 (at node 543)
	maximum = 0.0941 (at node 754)
Injected flit rate average = 0.850712
	minimum = 0.7387 (at node 990)
	maximum = 0.9713 (at node 584)
Accepted flit rate average= 0.851365
	minimum = 0.7405 (at node 543)
	maximum = 0.9415 (at node 889)
Injected packet length average = 9.99977
Accepted packet length average = 9.99967
Total in-flight flits = 229498 (0 measured)
latency change    = 0.0139617
throughput change = 0.015715
Warmed up ...Time used is 30000 cycles
Class 0:
Packet latency average = 289.585
	minimum = 14
	maximum = 1658
Network latency average = 263.323
	minimum = 14
	maximum = 1658
Slowest packet = 3121275
Flit latency average = 254.784
	minimum = 5
	maximum = 1649
Slowest flit = 31212750
Fragmentation average = 0.721001
	minimum = 0
	maximum = 27
Injected packet rate average = 0.0850062
	minimum = 0.0753 (at node 279)
	maximum = 0.0953 (at node 74)
Accepted packet rate average = 0.0849918
	minimum = 0.0771 (at node 98)
	maximum = 0.094 (at node 770)
Injected flit rate average = 0.85009
	minimum = 0.7536 (at node 279)
	maximum = 0.9524 (at node 74)
Accepted flit rate average= 0.849918
	minimum = 0.7726 (at node 98)
	maximum = 0.9403 (at node 770)
Injected packet length average = 10.0003
Accepted packet length average = 10
Total in-flight flits = 231024 (231024 measured)
latency change    = 0.0120718
throughput change = 0.00170282
Class 0:
Packet latency average = 288.998
	minimum = 14
	maximum = 1662
Network latency average = 263.193
	minimum = 14
	maximum = 1662
Slowest packet = 3982947
Flit latency average = 254.232
	minimum = 5
	maximum = 1653
Slowest flit = 39829470
Fragmentation average = 0.719454
	minimum = 0
	maximum = 27
Injected packet rate average = 0.0849563
	minimum = 0.07895 (at node 527)
	maximum = 0.0926 (at node 749)
Accepted packet rate average = 0.0849358
	minimum = 0.07865 (at node 492)
	maximum = 0.09155 (at node 770)
Injected flit rate average = 0.849571
	minimum = 0.78955 (at node 527)
	maximum = 0.9262 (at node 749)
Accepted flit rate average= 0.84937
	minimum = 0.7867 (at node 492)
	maximum = 0.91555 (at node 770)
Injected packet length average = 10.0001
Accepted packet length average = 10.0001
Total in-flight flits = 233577 (233577 measured)
latency change    = 0.00202926
throughput change = 0.000644807
Class 0:
Packet latency average = 290.532
	minimum = 14
	maximum = 1662
Network latency average = 264.646
	minimum = 14
	maximum = 1662
Slowest packet = 3982947
Flit latency average = 255.528
	minimum = 5
	maximum = 1653
Slowest flit = 39829470
Fragmentation average = 0.716464
	minimum = 0
	maximum = 27
Injected packet rate average = 0.0849998
	minimum = 0.0793 (at node 597)
	maximum = 0.0898 (at node 87)
Accepted packet rate average = 0.0849825
	minimum = 0.0794667 (at node 492)
	maximum = 0.0903333 (at node 770)
Injected flit rate average = 0.850001
	minimum = 0.793167 (at node 597)
	maximum = 0.898133 (at node 87)
Accepted flit rate average= 0.849834
	minimum = 0.794867 (at node 492)
	maximum = 0.903367 (at node 770)
Injected packet length average = 10
Accepted packet length average = 10.0001
Total in-flight flits = 234699 (234699 measured)
latency change    = 0.00527929
throughput change = 0.000545171
Draining all recorded packets ...
Class 0:
Remaining flits: 53558929 53726686 53726687 53726688 53726689 53753420 53753421 53753422 53753423 53753424 [...] (238026 flits)
Measured flits: 53558929 53726686 53726687 53726688 53726689 53753420 53753421 53753422 53753423 53753424 [...] (108 flits)
Draining remaining packets ...
Time taken is 61865 cycles
====== Overall Traffic Statistics ======
====== Traffic class 0 ======
Packet latency average = 290.95 (1 samples)
	minimum = 14 (1 samples)
	maximum = 1662 (1 samples)
Network latency average = 265.023 (1 samples)
	minimum = 14 (1 samples)
	maximum = 1662 (1 samples)
Flit latency average = 255.957 (1 samples)
	minimum = 5 (1 samples)
	maximum = 1653 (1 samples)
Fragmentation average = 0.715378 (1 samples)
	minimum = 0 (1 samples)
	maximum = 27 (1 samples)
Injected packet rate average = 0.0849998 (1 samples)
	minimum = 0.0793 (1 samples)
	maximum = 0.0898 (1 samples)
Accepted packet rate average = 0.0849825 (1 samples)
	minimum = 0.0794667 (1 samples)
	maximum = 0.0903333 (1 samples)
Injected flit rate average = 0.850001 (1 samples)
	minimum = 0.793167 (1 samples)
	maximum = 0.898133 (1 samples)
Accepted flit rate average = 0.849834 (1 samples)
	minimum = 0.794867 (1 samples)
	maximum = 0.903367 (1 samples)
Injected packet size average = 10 (1 samples)
Accepted packet size average = 10.0001 (1 samples)
Hops average = 3.69262 (1 samples)
Total run time 2667.76
BEGIN Configuration File: examples/dragonflyconfig
// $Id$

// Copyright (c) 2007-2015, Trustees of The Leland Stanford Junior University
// All rights reserved.
//
// Redistribution and use in source and binary forms, with or without
// modification, are permitted provided that the following conditions are met:
//
// Redistributions of source code must retain the above copyright notice, this
// list of conditions and the following disclaimer.
// Redistributions in binary form must reproduce the above copyright notice,
// this list of conditions and the following disclaimer in the documentation
// and/or other materials provided with the distribution.
//
// THIS SOFTWARE IS PROVIDED BY THE COPYRIGHT HOLDERS AND CONTRIBUTORS "AS IS"
// AND ANY EXPRESS OR IMPLIED WARRANTIES, INCLUDING, BUT NOT LIMITED TO, THE
// IMPLIED WARRANTIES OF MERCHANTABILITY AND FITNESS FOR A PARTICULAR PURPOSE
// ARE DISCLAIMED. IN NO EVENT SHALL THE COPYRIGHT OWNER OR CONTRIBUTORS BE
// LIABLE FOR ANY DIRECT, INDIRECT, INCIDENTAL, SPECIAL, EXEMPLARY, OR
// CONSEQUENTIAL DAMAGES (INCLUDING, BUT NOT LIMITED TO, PROCUREMENT OF
// SUBSTITUTE GOODS OR SERVICES; LOSS OF USE, DATA, OR PROFITS; OR BUSINESS
// INTERRUPTION) HOWEVER CAUSED AND ON ANY THEORY OF LIABILITY, WHETHER IN
// CONTRACT, STRICT LIABILITY, OR TORT (INCLUDING NEGLIGENCE OR OTHERWISE)
// ARISING IN ANY WAY OUT OF THE USE OF THIS SOFTWARE, EVEN IF ADVISED OF THE
// POSSIBILITY OF SUCH DAMAGE.

// Dragonfly
//




vc_buf_size = 256;


wait_for_tail_credit = 0;

//
// Router architecture
//
vc_allocator = separable_input_first; 
sw_allocator = separable_input_first;
alloc_iters  = 1;

credit_delay   = 2;
routing_delay  = 0;
vc_alloc_delay = 1;
sw_alloc_delay = 1;
st_final_delay = 1;

input_speedup     = 1;
output_speedup    = 1;
internal_speedup  = 2.0;


warmup_periods = 3;
sim_count          = 1;

sample_period  = 10000;  



routing_function = min;
num_vcs     = 2;

priority = none;
traffic       = uniform; 


packet_size = 10;
injection_rate_uses_flits=1;

topology = dragonflynew;

k  = 4;
n  = 1;

watch_out=-;

injection_rate =0.01;
stats_out = dragonfly_1.m;
injection_rate =0.05;
stats_out = dragonfly_5.m;
injection_rate =0.1;
stats_out = dragonfly_10.m;
injection_rate =0.15;
stats_out = dragonfly_15.m;
injection_rate =0.2;
stats_out = dragonfly_20.m;
injection_rate =0.25;
stats_out = dragonfly_25.m;
injection_rate =0.3;
stats_out = dragonfly_30.m;
injection_rate =0.35;
stats_out = dragonfly_35.m;
injection_rate =0.4;
stats_out = dragonfly_40.m;
injection_rate =0.45;
stats_out = dragonfly_45.m;
injection_rate =0.5;
stats_out = dragonfly_50.m;
injection_rate =0.55;
stats_out = dragonfly_55.m;
injection_rate =0.6;
stats_out = dragonfly_60.m;
injection_rate =0.65;
stats_out = dragonfly_65.m;
injection_rate =0.7;
stats_out = dragonfly_70.m;
injection_rate =0.75;
stats_out = dragonfly_75.m;
injection_rate =0.8;
stats_out = dragonfly_80.m;
injection_rate =0.85;
stats_out = dragonfly_85.m;
injection_rate =0.9;
stats_out = dragonfly_90.m;

END Configuration File: examples/dragonflyconfig
 Dragonfly 
 p = 4 n = 1
 each switch - total radix =  15
 # of switches = 264
 # of channels = 2904
 # of nodes ( size of network ) = 1056
 # of groups (_g) = 33
 # of routers per group (_a) = 8
Done links
Class 0:
Packet latency average = 395.101
	minimum = 14
	maximum = 2311
Network latency average = 350.468
	minimum = 14
	maximum = 2122
Slowest packet = 263358
Flit latency average = 341.114
	minimum = 5
	maximum = 2113
Slowest flit = 6113810
Fragmentation average = 0.670137
	minimum = 0
	maximum = 27
Injected packet rate average = 0.089265
	minimum = 0.0803 (at node 43)
	maximum = 0.099 (at node 217)
Accepted packet rate average = 0.0854187
	minimum = 0.077 (at node 752)
	maximum = 0.0933 (at node 367)
Injected flit rate average = 0.892254
	minimum = 0.8028 (at node 43)
	maximum = 0.9892 (at node 217)
Accepted flit rate average= 0.854614
	minimum = 0.7709 (at node 752)
	maximum = 0.933 (at node 367)
Injected packet length average = 9.99556
Accepted packet length average = 10.005
Total in-flight flits = 401657 (0 measured)
latency change    = 1
throughput change = 1
Class 0:
Packet latency average = 498.515
	minimum = 14
	maximum = 3503
Network latency average = 416.906
	minimum = 14
	maximum = 2455
Slowest packet = 263358
Flit latency average = 407.493
	minimum = 5
	maximum = 2446
Slowest flit = 14820910
Fragmentation average = 0.647401
	minimum = 0
	maximum = 27
Injected packet rate average = 0.0891464
	minimum = 0.08065 (at node 468)
	maximum = 0.09765 (at node 217)
Accepted packet rate average = 0.0868549
	minimum = 0.08015 (at node 752)
	maximum = 0.09395 (at node 139)
Injected flit rate average = 0.891254
	minimum = 0.8063 (at node 468)
	maximum = 0.97615 (at node 217)
Accepted flit rate average= 0.868769
	minimum = 0.80175 (at node 752)
	maximum = 0.9397 (at node 139)
Injected packet length average = 9.99763
Accepted packet length average = 10.0025
Total in-flight flits = 479330 (0 measured)
latency change    = 0.207445
throughput change = 0.0162932
Average latency for class 0 exceeded 500 cycles. Aborting simulation.
Too many sample periods needed to converge
Simulation unstable, ending ...
Total run time 919.668
BEGIN Configuration File: examples/dragonflyconfig
// $Id$

// Copyright (c) 2007-2015, Trustees of The Leland Stanford Junior University
// All rights reserved.
//
// Redistribution and use in source and binary forms, with or without
// modification, are permitted provided that the following conditions are met:
//
// Redistributions of source code must retain the above copyright notice, this
// list of conditions and the following disclaimer.
// Redistributions in binary form must reproduce the above copyright notice,
// this list of conditions and the following disclaimer in the documentation
// and/or other materials provided with the distribution.
//
// THIS SOFTWARE IS PROVIDED BY THE COPYRIGHT HOLDERS AND CONTRIBUTORS "AS IS"
// AND ANY EXPRESS OR IMPLIED WARRANTIES, INCLUDING, BUT NOT LIMITED TO, THE
// IMPLIED WARRANTIES OF MERCHANTABILITY AND FITNESS FOR A PARTICULAR PURPOSE
// ARE DISCLAIMED. IN NO EVENT SHALL THE COPYRIGHT OWNER OR CONTRIBUTORS BE
// LIABLE FOR ANY DIRECT, INDIRECT, INCIDENTAL, SPECIAL, EXEMPLARY, OR
// CONSEQUENTIAL DAMAGES (INCLUDING, BUT NOT LIMITED TO, PROCUREMENT OF
// SUBSTITUTE GOODS OR SERVICES; LOSS OF USE, DATA, OR PROFITS; OR BUSINESS
// INTERRUPTION) HOWEVER CAUSED AND ON ANY THEORY OF LIABILITY, WHETHER IN
// CONTRACT, STRICT LIABILITY, OR TORT (INCLUDING NEGLIGENCE OR OTHERWISE)
// ARISING IN ANY WAY OUT OF THE USE OF THIS SOFTWARE, EVEN IF ADVISED OF THE
// POSSIBILITY OF SUCH DAMAGE.

// Dragonfly
//




vc_buf_size = 256;


wait_for_tail_credit = 0;

//
// Router architecture
//
vc_allocator = separable_input_first; 
sw_allocator = separable_input_first;
alloc_iters  = 1;

credit_delay   = 2;
routing_delay  = 0;
vc_alloc_delay = 1;
sw_alloc_delay = 1;
st_final_delay = 1;

input_speedup     = 1;
output_speedup    = 1;
internal_speedup  = 2.0;


warmup_periods = 3;
sim_count          = 1;

sample_period  = 10000;  



routing_function = min;
num_vcs     = 2;

priority = none;
traffic       = uniform; 


packet_size = 10;
injection_rate_uses_flits=1;

topology = dragonflynew;

k  = 4;
n  = 1;

watch_out=-;

injection_rate =0.01;
stats_out = dragonfly_1.m;
injection_rate =0.05;
stats_out = dragonfly_5.m;
injection_rate =0.1;
stats_out = dragonfly_10.m;
injection_rate =0.15;
stats_out = dragonfly_15.m;
injection_rate =0.2;
stats_out = dragonfly_20.m;
injection_rate =0.25;
stats_out = dragonfly_25.m;
injection_rate =0.3;
stats_out = dragonfly_30.m;
injection_rate =0.35;
stats_out = dragonfly_35.m;
injection_rate =0.4;
stats_out = dragonfly_40.m;
injection_rate =0.45;
stats_out = dragonfly_45.m;
injection_rate =0.5;
stats_out = dragonfly_50.m;
injection_rate =0.55;
stats_out = dragonfly_55.m;
injection_rate =0.6;
stats_out = dragonfly_60.m;
injection_rate =0.65;
stats_out = dragonfly_65.m;
injection_rate =0.7;
stats_out = dragonfly_70.m;
injection_rate =0.75;
stats_out = dragonfly_75.m;
injection_rate =0.8;
stats_out = dragonfly_80.m;
injection_rate =0.85;
stats_out = dragonfly_85.m;
injection_rate =0.9;
stats_out = dragonfly_90.m;
injection_rate =0.95;
stats_out = dragonfly_95.m;

END Configuration File: examples/dragonflyconfig
 Dragonfly 
 p = 4 n = 1
 each switch - total radix =  15
 # of switches = 264
 # of channels = 2904
 # of nodes ( size of network ) = 1056
 # of groups (_g) = 33
 # of routers per group (_a) = 8
Done links
134.758
136.073
137.581
139.337
141.282
143.554
146.272
149.451
153.199
157.75
163.367
170.314
179.262
191.192
208.099
235.104
290.95
498.515
