BEGIN Configuration File: examples/dflyconfigugal
// $Id$

// Copyright (c) 2007-2015, Trustees of The Leland Stanford Junior University
// All rights reserved.
//
// Redistribution and use in source and binary forms, with or without
// modification, are permitted provided that the following conditions are met:
//
// Redistributions of source code must retain the above copyright notice, this
// list of conditions and the following disclaimer.
// Redistributions in binary form must reproduce the above copyright notice,
// this list of conditions and the following disclaimer in the documentation
// and/or other materials provided with the distribution.
//
// THIS SOFTWARE IS PROVIDED BY THE COPYRIGHT HOLDERS AND CONTRIBUTORS "AS IS"
// AND ANY EXPRESS OR IMPLIED WARRANTIES, INCLUDING, BUT NOT LIMITED TO, THE
// IMPLIED WARRANTIES OF MERCHANTABILITY AND FITNESS FOR A PARTICULAR PURPOSE
// ARE DISCLAIMED. IN NO EVENT SHALL THE COPYRIGHT OWNER OR CONTRIBUTORS BE
// LIABLE FOR ANY DIRECT, INDIRECT, INCIDENTAL, SPECIAL, EXEMPLARY, OR
// CONSEQUENTIAL DAMAGES (INCLUDING, BUT NOT LIMITED TO, PROCUREMENT OF
// SUBSTITUTE GOODS OR SERVICES; LOSS OF USE, DATA, OR PROFITS; OR BUSINESS
// INTERRUPTION) HOWEVER CAUSED AND ON ANY THEORY OF LIABILITY, WHETHER IN
// CONTRACT, STRICT LIABILITY, OR TORT (INCLUDING NEGLIGENCE OR OTHERWISE)
// ARISING IN ANY WAY OUT OF THE USE OF THIS SOFTWARE, EVEN IF ADVISED OF THE
// POSSIBILITY OF SUCH DAMAGE.

// Dragonfly
//




vc_buf_size = 256;


wait_for_tail_credit = 0;

//
// Router architecture
//
vc_allocator = separable_input_first; 
sw_allocator = separable_input_first;
alloc_iters  = 1;

credit_delay   = 2;
routing_delay  = 0;
vc_alloc_delay = 1;
sw_alloc_delay = 1;
st_final_delay = 1;

input_speedup     = 1;
output_speedup    = 1;
internal_speedup  = 2.0;


warmup_periods = 3;
sim_count          = 1;

sample_period  = 10000;  



routing_function = ugal;
num_vcs     = 3;

priority = none;
traffic       = uniform; 


packet_size = 10;
injection_rate_uses_flits=1;

topology = dragonflynew;

k  = 4;
n  = 1;

watch_out=-;

injection_rate =0.01;
stats_out = dflyugal_1.m;

END Configuration File: examples/dflyconfigugal
 Dragonfly 
 p = 4 n = 1
 each switch - total radix =  15
 # of switches = 264
 # of channels = 2904
 # of nodes ( size of network ) = 1056
 # of groups (_g) = 33
 # of routers per group (_a) = 8
Done links
Class 0:
Packet latency average = 133.524
	minimum = 14
	maximum = 157
Network latency average = 133.492
	minimum = 14
	maximum = 155
Slowest packet = 145
Flit latency average = 124.466
	minimum = 5
	maximum = 146
Slowest flit = 67490
Fragmentation average = 0.0370406
	minimum = 0
	maximum = 8
Injected packet rate average = 0.00100303
	minimum = 0.0002 (at node 646)
	maximum = 0.0021 (at node 222)
Accepted packet rate average = 0.000989394
	minimum = 0 (at node 916)
	maximum = 0.0021 (at node 1035)
Injected flit rate average = 0.0100272
	minimum = 0.002 (at node 646)
	maximum = 0.021 (at node 222)
Accepted flit rate average= 0.00990208
	minimum = 0 (at node 916)
	maximum = 0.021 (at node 1035)
Injected packet length average = 9.99688
Accepted packet length average = 10.0082
Total in-flight flits = 1354 (0 measured)
latency change    = 1
throughput change = 1
Class 0:
Packet latency average = 133.566
	minimum = 14
	maximum = 157
Network latency average = 133.528
	minimum = 14
	maximum = 157
Slowest packet = 145
Flit latency average = 124.503
	minimum = 5
	maximum = 148
Slowest flit = 182610
Fragmentation average = 0.0425795
	minimum = 0
	maximum = 8
Injected packet rate average = 0.00100237
	minimum = 0.0004 (at node 101)
	maximum = 0.0018 (at node 253)
Accepted packet rate average = 0.000996354
	minimum = 0.0004 (at node 411)
	maximum = 0.0018 (at node 829)
Injected flit rate average = 0.0100221
	minimum = 0.004 (at node 101)
	maximum = 0.018 (at node 253)
Accepted flit rate average= 0.00996544
	minimum = 0.004 (at node 411)
	maximum = 0.018 (at node 829)
Injected packet length average = 9.99844
Accepted packet length average = 10.0019
Total in-flight flits = 1230 (0 measured)
latency change    = 0.000320576
throughput change = 0.0063572
Class 0:
Packet latency average = 133.604
	minimum = 14
	maximum = 155
Network latency average = 133.562
	minimum = 14
	maximum = 155
Slowest packet = 24573
Flit latency average = 124.54
	minimum = 5
	maximum = 146
Slowest flit = 245730
Fragmentation average = 0.0386819
	minimum = 0
	maximum = 8
Injected packet rate average = 0.000994413
	minimum = 0.0002 (at node 77)
	maximum = 0.0022 (at node 686)
Accepted packet rate average = 0.000991477
	minimum = 0.0001 (at node 225)
	maximum = 0.0027 (at node 211)
Injected flit rate average = 0.00994034
	minimum = 0.002 (at node 77)
	maximum = 0.0217 (at node 686)
Accepted flit rate average= 0.00991345
	minimum = 0.001 (at node 225)
	maximum = 0.0264 (at node 211)
Injected packet length average = 9.99619
Accepted packet length average = 9.99866
Total in-flight flits = 1554 (0 measured)
latency change    = 0.000280357
throughput change = 0.00524425
Warmed up ...Time used is 30000 cycles
Class 0:
Packet latency average = 133.663
	minimum = 14
	maximum = 159
Network latency average = 133.617
	minimum = 14
	maximum = 159
Slowest packet = 36607
Flit latency average = 124.644
	minimum = 5
	maximum = 150
Slowest flit = 366070
Fragmentation average = 0.0327468
	minimum = 0
	maximum = 8
Injected packet rate average = 0.000980682
	minimum = 0.0002 (at node 1038)
	maximum = 0.002 (at node 475)
Accepted packet rate average = 0.000983712
	minimum = 0.0002 (at node 206)
	maximum = 0.0021 (at node 787)
Injected flit rate average = 0.00980994
	minimum = 0.002 (at node 1038)
	maximum = 0.02 (at node 475)
Accepted flit rate average= 0.00984025
	minimum = 0.002 (at node 206)
	maximum = 0.021 (at node 787)
Injected packet length average = 10.0032
Accepted packet length average = 10.0032
Total in-flight flits = 1201 (1201 measured)
latency change    = 0.000444603
throughput change = 0.00743892
Class 0:
Packet latency average = 133.831
	minimum = 14
	maximum = 159
Network latency average = 133.785
	minimum = 14
	maximum = 159
Slowest packet = 36607
Flit latency average = 124.786
	minimum = 5
	maximum = 150
Slowest flit = 366070
Fragmentation average = 0.0357556
	minimum = 0
	maximum = 8
Injected packet rate average = 0.000989394
	minimum = 0.0003 (at node 1038)
	maximum = 0.00165 (at node 135)
Accepted packet rate average = 0.000990057
	minimum = 0.00035 (at node 342)
	maximum = 0.00165 (at node 126)
Injected flit rate average = 0.00989593
	minimum = 0.003 (at node 1038)
	maximum = 0.0165 (at node 135)
Accepted flit rate average= 0.00990076
	minimum = 0.0035 (at node 342)
	maximum = 0.0165 (at node 126)
Injected packet length average = 10.002
Accepted packet length average = 10.0002
Total in-flight flits = 1410 (1410 measured)
latency change    = 0.00125062
throughput change = 0.00611179
Class 0:
Packet latency average = 133.75
	minimum = 14
	maximum = 159
Network latency average = 133.702
	minimum = 14
	maximum = 159
Slowest packet = 36607
Flit latency average = 124.697
	minimum = 5
	maximum = 150
Slowest flit = 366070
Fragmentation average = 0.036224
	minimum = 0
	maximum = 8
Injected packet rate average = 0.000995107
	minimum = 0.0004 (at node 897)
	maximum = 0.00156667 (at node 135)
Accepted packet rate average = 0.00099577
	minimum = 0.000466667 (at node 151)
	maximum = 0.00146667 (at node 873)
Injected flit rate average = 0.00995205
	minimum = 0.004 (at node 897)
	maximum = 0.0156667 (at node 135)
Accepted flit rate average= 0.00995855
	minimum = 0.00466667 (at node 151)
	maximum = 0.0146667 (at node 873)
Injected packet length average = 10.001
Accepted packet length average = 10.0009
Total in-flight flits = 1317 (1317 measured)
latency change    = 0.000604431
throughput change = 0.00580373
Draining all recorded packets ...
Draining remaining packets ...
Time taken is 60367 cycles
====== Overall Traffic Statistics ======
====== Traffic class 0 ======
Packet latency average = 133.767 (1 samples)
	minimum = 14 (1 samples)
	maximum = 159 (1 samples)
Network latency average = 133.719 (1 samples)
	minimum = 14 (1 samples)
	maximum = 159 (1 samples)
Flit latency average = 124.708 (1 samples)
	minimum = 5 (1 samples)
	maximum = 150 (1 samples)
Fragmentation average = 0.0363521 (1 samples)
	minimum = 0 (1 samples)
	maximum = 8 (1 samples)
Injected packet rate average = 0.000995107 (1 samples)
	minimum = 0.0004 (1 samples)
	maximum = 0.00156667 (1 samples)
Accepted packet rate average = 0.00099577 (1 samples)
	minimum = 0.000466667 (1 samples)
	maximum = 0.00146667 (1 samples)
Injected flit rate average = 0.00995205 (1 samples)
	minimum = 0.004 (1 samples)
	maximum = 0.0156667 (1 samples)
Accepted flit rate average = 0.00995855 (1 samples)
	minimum = 0.00466667 (1 samples)
	maximum = 0.0146667 (1 samples)
Injected packet size average = 10.001 (1 samples)
Accepted packet size average = 10.0009 (1 samples)
Hops average = 3.69056 (1 samples)
Total run time 152.274
BEGIN Configuration File: examples/dflyconfigugal
// $Id$

// Copyright (c) 2007-2015, Trustees of The Leland Stanford Junior University
// All rights reserved.
//
// Redistribution and use in source and binary forms, with or without
// modification, are permitted provided that the following conditions are met:
//
// Redistributions of source code must retain the above copyright notice, this
// list of conditions and the following disclaimer.
// Redistributions in binary form must reproduce the above copyright notice,
// this list of conditions and the following disclaimer in the documentation
// and/or other materials provided with the distribution.
//
// THIS SOFTWARE IS PROVIDED BY THE COPYRIGHT HOLDERS AND CONTRIBUTORS "AS IS"
// AND ANY EXPRESS OR IMPLIED WARRANTIES, INCLUDING, BUT NOT LIMITED TO, THE
// IMPLIED WARRANTIES OF MERCHANTABILITY AND FITNESS FOR A PARTICULAR PURPOSE
// ARE DISCLAIMED. IN NO EVENT SHALL THE COPYRIGHT OWNER OR CONTRIBUTORS BE
// LIABLE FOR ANY DIRECT, INDIRECT, INCIDENTAL, SPECIAL, EXEMPLARY, OR
// CONSEQUENTIAL DAMAGES (INCLUDING, BUT NOT LIMITED TO, PROCUREMENT OF
// SUBSTITUTE GOODS OR SERVICES; LOSS OF USE, DATA, OR PROFITS; OR BUSINESS
// INTERRUPTION) HOWEVER CAUSED AND ON ANY THEORY OF LIABILITY, WHETHER IN
// CONTRACT, STRICT LIABILITY, OR TORT (INCLUDING NEGLIGENCE OR OTHERWISE)
// ARISING IN ANY WAY OUT OF THE USE OF THIS SOFTWARE, EVEN IF ADVISED OF THE
// POSSIBILITY OF SUCH DAMAGE.

// Dragonfly
//




vc_buf_size = 256;


wait_for_tail_credit = 0;

//
// Router architecture
//
vc_allocator = separable_input_first; 
sw_allocator = separable_input_first;
alloc_iters  = 1;

credit_delay   = 2;
routing_delay  = 0;
vc_alloc_delay = 1;
sw_alloc_delay = 1;
st_final_delay = 1;

input_speedup     = 1;
output_speedup    = 1;
internal_speedup  = 2.0;


warmup_periods = 3;
sim_count          = 1;

sample_period  = 10000;  



routing_function = ugal;
num_vcs     = 3;

priority = none;
traffic       = uniform; 


packet_size = 10;
injection_rate_uses_flits=1;

topology = dragonflynew;

k  = 4;
n  = 1;

watch_out=-;

injection_rate =0.01;
stats_out = dflyugal_1.m;
injection_rate =0.05;
stats_out = dflyugal_5.m;

END Configuration File: examples/dflyconfigugal
 Dragonfly 
 p = 4 n = 1
 each switch - total radix =  15
 # of switches = 264
 # of channels = 2904
 # of nodes ( size of network ) = 1056
 # of groups (_g) = 33
 # of routers per group (_a) = 8
Done links
Class 0:
Packet latency average = 134.956
	minimum = 14
	maximum = 279
Network latency average = 134.715
	minimum = 14
	maximum = 277
Slowest packet = 3164
Flit latency average = 125.602
	minimum = 5
	maximum = 268
Slowest flit = 212680
Fragmentation average = 0.196449
	minimum = 0
	maximum = 10
Injected packet rate average = 0.00499498
	minimum = 0.0029 (at node 388)
	maximum = 0.0075 (at node 125)
Accepted packet rate average = 0.00492888
	minimum = 0.0028 (at node 43)
	maximum = 0.0077 (at node 49)
Injected flit rate average = 0.049933
	minimum = 0.029 (at node 388)
	maximum = 0.075 (at node 125)
Accepted flit rate average= 0.0493123
	minimum = 0.028 (at node 43)
	maximum = 0.077 (at node 49)
Injected packet length average = 9.99664
Accepted packet length average = 10.0048
Total in-flight flits = 6732 (0 measured)
latency change    = 1
throughput change = 1
Class 0:
Packet latency average = 135.018
	minimum = 14
	maximum = 279
Network latency average = 134.78
	minimum = 14
	maximum = 277
Slowest packet = 3164
Flit latency average = 125.664
	minimum = 5
	maximum = 268
Slowest flit = 212680
Fragmentation average = 0.20083
	minimum = 0
	maximum = 11
Injected packet rate average = 0.00500511
	minimum = 0.00355 (at node 68)
	maximum = 0.0065 (at node 216)
Accepted packet rate average = 0.00497273
	minimum = 0.0038 (at node 335)
	maximum = 0.0063 (at node 446)
Injected flit rate average = 0.0500395
	minimum = 0.0355 (at node 68)
	maximum = 0.0647 (at node 216)
Accepted flit rate average= 0.0497388
	minimum = 0.038 (at node 335)
	maximum = 0.063 (at node 446)
Injected packet length average = 9.99768
Accepted packet length average = 10.0023
Total in-flight flits = 6597 (0 measured)
latency change    = 0.000459122
throughput change = 0.00857415
Class 0:
Packet latency average = 134.969
	minimum = 14
	maximum = 282
Network latency average = 134.734
	minimum = 14
	maximum = 282
Slowest packet = 133316
Flit latency average = 125.606
	minimum = 5
	maximum = 273
Slowest flit = 1333160
Fragmentation average = 0.216215
	minimum = 0
	maximum = 12
Injected packet rate average = 0.00501042
	minimum = 0.0032 (at node 281)
	maximum = 0.0075 (at node 843)
Accepted packet rate average = 0.00500038
	minimum = 0.0029 (at node 629)
	maximum = 0.008 (at node 847)
Injected flit rate average = 0.0501076
	minimum = 0.032 (at node 281)
	maximum = 0.075 (at node 843)
Accepted flit rate average= 0.0500007
	minimum = 0.029 (at node 629)
	maximum = 0.0794 (at node 847)
Injected packet length average = 10.0007
Accepted packet length average = 9.99938
Total in-flight flits = 7690 (0 measured)
latency change    = 0.000367251
throughput change = 0.00523762
Warmed up ...Time used is 30000 cycles
Class 0:
Packet latency average = 134.983
	minimum = 14
	maximum = 276
Network latency average = 134.747
	minimum = 14
	maximum = 276
Slowest packet = 194396
Flit latency average = 125.67
	minimum = 5
	maximum = 267
Slowest flit = 1943969
Fragmentation average = 0.205313
	minimum = 0
	maximum = 12
Injected packet rate average = 0.00496629
	minimum = 0.0028 (at node 687)
	maximum = 0.0075 (at node 507)
Accepted packet rate average = 0.00497263
	minimum = 0.003 (at node 666)
	maximum = 0.0073 (at node 36)
Injected flit rate average = 0.0496529
	minimum = 0.028 (at node 687)
	maximum = 0.075 (at node 507)
Accepted flit rate average= 0.0497254
	minimum = 0.03 (at node 666)
	maximum = 0.073 (at node 36)
Injected packet length average = 9.998
Accepted packet length average = 9.99981
Total in-flight flits = 7030 (7030 measured)
latency change    = 0.000103443
throughput change = 0.00553609
Class 0:
Packet latency average = 135.031
	minimum = 14
	maximum = 281
Network latency average = 134.796
	minimum = 14
	maximum = 276
Slowest packet = 194396
Flit latency average = 125.697
	minimum = 5
	maximum = 267
Slowest flit = 1943969
Fragmentation average = 0.20325
	minimum = 0
	maximum = 12
Injected packet rate average = 0.00496809
	minimum = 0.0033 (at node 350)
	maximum = 0.0066 (at node 902)
Accepted packet rate average = 0.00497306
	minimum = 0.0035 (at node 636)
	maximum = 0.0067 (at node 790)
Injected flit rate average = 0.0496769
	minimum = 0.033 (at node 350)
	maximum = 0.066 (at node 902)
Accepted flit rate average= 0.0497296
	minimum = 0.035 (at node 636)
	maximum = 0.067 (at node 790)
Injected packet length average = 9.99921
Accepted packet length average = 9.99981
Total in-flight flits = 6660 (6660 measured)
latency change    = 0.000359965
throughput change = 8.56906e-05
Class 0:
Packet latency average = 135.039
	minimum = 14
	maximum = 281
Network latency average = 134.81
	minimum = 14
	maximum = 276
Slowest packet = 194396
Flit latency average = 125.703
	minimum = 5
	maximum = 267
Slowest flit = 1943969
Fragmentation average = 0.204143
	minimum = 0
	maximum = 12
Injected packet rate average = 0.00498169
	minimum = 0.00356667 (at node 981)
	maximum = 0.00633333 (at node 944)
Accepted packet rate average = 0.00498378
	minimum = 0.0039 (at node 883)
	maximum = 0.00646667 (at node 908)
Injected flit rate average = 0.0498174
	minimum = 0.0356667 (at node 981)
	maximum = 0.0633333 (at node 944)
Accepted flit rate average= 0.0498395
	minimum = 0.039 (at node 883)
	maximum = 0.0645667 (at node 908)
Injected packet length average = 10.0001
Accepted packet length average = 10.0003
Total in-flight flits = 6975 (6975 measured)
latency change    = 5.47977e-05
throughput change = 0.00220405
Draining all recorded packets ...
Draining remaining packets ...
Time taken is 60572 cycles
====== Overall Traffic Statistics ======
====== Traffic class 0 ======
Packet latency average = 135.055 (1 samples)
	minimum = 14 (1 samples)
	maximum = 281 (1 samples)
Network latency average = 134.827 (1 samples)
	minimum = 14 (1 samples)
	maximum = 276 (1 samples)
Flit latency average = 125.723 (1 samples)
	minimum = 5 (1 samples)
	maximum = 267 (1 samples)
Fragmentation average = 0.20415 (1 samples)
	minimum = 0 (1 samples)
	maximum = 12 (1 samples)
Injected packet rate average = 0.00498169 (1 samples)
	minimum = 0.00356667 (1 samples)
	maximum = 0.00633333 (1 samples)
Accepted packet rate average = 0.00498378 (1 samples)
	minimum = 0.0039 (1 samples)
	maximum = 0.00646667 (1 samples)
Injected flit rate average = 0.0498174 (1 samples)
	minimum = 0.0356667 (1 samples)
	maximum = 0.0633333 (1 samples)
Accepted flit rate average = 0.0498395 (1 samples)
	minimum = 0.039 (1 samples)
	maximum = 0.0645667 (1 samples)
Injected packet size average = 10.0001 (1 samples)
Accepted packet size average = 10.0003 (1 samples)
Hops average = 3.70404 (1 samples)
Total run time 299.02
BEGIN Configuration File: examples/dflyconfigugal
// $Id$

// Copyright (c) 2007-2015, Trustees of The Leland Stanford Junior University
// All rights reserved.
//
// Redistribution and use in source and binary forms, with or without
// modification, are permitted provided that the following conditions are met:
//
// Redistributions of source code must retain the above copyright notice, this
// list of conditions and the following disclaimer.
// Redistributions in binary form must reproduce the above copyright notice,
// this list of conditions and the following disclaimer in the documentation
// and/or other materials provided with the distribution.
//
// THIS SOFTWARE IS PROVIDED BY THE COPYRIGHT HOLDERS AND CONTRIBUTORS "AS IS"
// AND ANY EXPRESS OR IMPLIED WARRANTIES, INCLUDING, BUT NOT LIMITED TO, THE
// IMPLIED WARRANTIES OF MERCHANTABILITY AND FITNESS FOR A PARTICULAR PURPOSE
// ARE DISCLAIMED. IN NO EVENT SHALL THE COPYRIGHT OWNER OR CONTRIBUTORS BE
// LIABLE FOR ANY DIRECT, INDIRECT, INCIDENTAL, SPECIAL, EXEMPLARY, OR
// CONSEQUENTIAL DAMAGES (INCLUDING, BUT NOT LIMITED TO, PROCUREMENT OF
// SUBSTITUTE GOODS OR SERVICES; LOSS OF USE, DATA, OR PROFITS; OR BUSINESS
// INTERRUPTION) HOWEVER CAUSED AND ON ANY THEORY OF LIABILITY, WHETHER IN
// CONTRACT, STRICT LIABILITY, OR TORT (INCLUDING NEGLIGENCE OR OTHERWISE)
// ARISING IN ANY WAY OUT OF THE USE OF THIS SOFTWARE, EVEN IF ADVISED OF THE
// POSSIBILITY OF SUCH DAMAGE.

// Dragonfly
//




vc_buf_size = 256;


wait_for_tail_credit = 0;

//
// Router architecture
//
vc_allocator = separable_input_first; 
sw_allocator = separable_input_first;
alloc_iters  = 1;

credit_delay   = 2;
routing_delay  = 0;
vc_alloc_delay = 1;
sw_alloc_delay = 1;
st_final_delay = 1;

input_speedup     = 1;
output_speedup    = 1;
internal_speedup  = 2.0;


warmup_periods = 3;
sim_count          = 1;

sample_period  = 10000;  



routing_function = ugal;
num_vcs     = 3;

priority = none;
traffic       = uniform; 


packet_size = 10;
injection_rate_uses_flits=1;

topology = dragonflynew;

k  = 4;
n  = 1;

watch_out=-;

injection_rate =0.01;
stats_out = dflyugal_1.m;
injection_rate =0.05;
stats_out = dflyugal_5.m;
injection_rate =0.1;
stats_out = dflyugal_10.m;

END Configuration File: examples/dflyconfigugal
 Dragonfly 
 p = 4 n = 1
 each switch - total radix =  15
 # of switches = 264
 # of channels = 2904
 # of nodes ( size of network ) = 1056
 # of groups (_g) = 33
 # of routers per group (_a) = 8
Done links
Class 0:
Packet latency average = 137.848
	minimum = 14
	maximum = 293
Network latency average = 137.359
	minimum = 14
	maximum = 289
Slowest packet = 29947
Flit latency average = 128.115
	minimum = 5
	maximum = 280
Slowest flit = 299479
Fragmentation average = 0.417052
	minimum = 0
	maximum = 15
Injected packet rate average = 0.0100045
	minimum = 0.0074 (at node 420)
	maximum = 0.0129 (at node 45)
Accepted packet rate average = 0.00986383
	minimum = 0.007 (at node 17)
	maximum = 0.013 (at node 329)
Injected flit rate average = 0.100003
	minimum = 0.074 (at node 420)
	maximum = 0.129 (at node 45)
Accepted flit rate average= 0.098683
	minimum = 0.07 (at node 17)
	maximum = 0.13 (at node 329)
Injected packet length average = 9.99582
Accepted packet length average = 10.0045
Total in-flight flits = 14377 (0 measured)
latency change    = 1
throughput change = 1
Class 0:
Packet latency average = 137.888
	minimum = 14
	maximum = 299
Network latency average = 137.393
	minimum = 14
	maximum = 299
Slowest packet = 165008
Flit latency average = 128.149
	minimum = 5
	maximum = 290
Slowest flit = 1650088
Fragmentation average = 0.416976
	minimum = 0
	maximum = 19
Injected packet rate average = 0.0100163
	minimum = 0.008 (at node 783)
	maximum = 0.01215 (at node 519)
Accepted packet rate average = 0.00995057
	minimum = 0.00785 (at node 17)
	maximum = 0.01195 (at node 156)
Injected flit rate average = 0.100139
	minimum = 0.08 (at node 783)
	maximum = 0.1215 (at node 519)
Accepted flit rate average= 0.0995285
	minimum = 0.0785 (at node 17)
	maximum = 0.1195 (at node 156)
Injected packet length average = 9.99764
Accepted packet length average = 10.0023
Total in-flight flits = 13399 (0 measured)
latency change    = 0.000286287
throughput change = 0.00849413
Class 0:
Packet latency average = 137.919
	minimum = 14
	maximum = 307
Network latency average = 137.419
	minimum = 14
	maximum = 304
Slowest packet = 215667
Flit latency average = 128.174
	minimum = 5
	maximum = 295
Slowest flit = 2924440
Fragmentation average = 0.413919
	minimum = 0
	maximum = 15
Injected packet rate average = 0.0100123
	minimum = 0.0069 (at node 174)
	maximum = 0.0133 (at node 437)
Accepted packet rate average = 0.0100009
	minimum = 0.0066 (at node 32)
	maximum = 0.0143 (at node 964)
Injected flit rate average = 0.100132
	minimum = 0.0687 (at node 174)
	maximum = 0.1339 (at node 437)
Accepted flit rate average= 0.10001
	minimum = 0.066 (at node 32)
	maximum = 0.143 (at node 964)
Injected packet length average = 10.0009
Accepted packet length average = 10
Total in-flight flits = 14597 (0 measured)
latency change    = 0.000226748
throughput change = 0.00481156
Warmed up ...Time used is 30000 cycles
Class 0:
Packet latency average = 137.839
	minimum = 14
	maximum = 290
Network latency average = 137.341
	minimum = 14
	maximum = 290
Slowest packet = 335833
Flit latency average = 128.177
	minimum = 5
	maximum = 281
Slowest flit = 3358330
Fragmentation average = 0.416927
	minimum = 0
	maximum = 19
Injected packet rate average = 0.00995682
	minimum = 0.007 (at node 939)
	maximum = 0.0134 (at node 240)
Accepted packet rate average = 0.00995985
	minimum = 0.0071 (at node 413)
	maximum = 0.0137 (at node 188)
Injected flit rate average = 0.0995517
	minimum = 0.07 (at node 939)
	maximum = 0.134 (at node 240)
Accepted flit rate average= 0.0995983
	minimum = 0.071 (at node 413)
	maximum = 0.137 (at node 188)
Injected packet length average = 9.99835
Accepted packet length average = 9.99998
Total in-flight flits = 14279 (14279 measured)
latency change    = 0.000580727
throughput change = 0.00413023
Class 0:
Packet latency average = 137.806
	minimum = 14
	maximum = 290
Network latency average = 137.31
	minimum = 14
	maximum = 290
Slowest packet = 335833
Flit latency average = 128.106
	minimum = 5
	maximum = 281
Slowest flit = 3358330
Fragmentation average = 0.416721
	minimum = 0
	maximum = 19
Injected packet rate average = 0.00995795
	minimum = 0.00775 (at node 12)
	maximum = 0.0123 (at node 785)
Accepted packet rate average = 0.00996454
	minimum = 0.0079 (at node 808)
	maximum = 0.01245 (at node 71)
Injected flit rate average = 0.0995759
	minimum = 0.0775 (at node 12)
	maximum = 0.12315 (at node 785)
Accepted flit rate average= 0.0996448
	minimum = 0.079 (at node 808)
	maximum = 0.1245 (at node 71)
Injected packet length average = 9.99963
Accepted packet length average = 9.99995
Total in-flight flits = 13218 (13218 measured)
latency change    = 0.000235649
throughput change = 0.000467095
Class 0:
Packet latency average = 137.88
	minimum = 14
	maximum = 296
Network latency average = 137.384
	minimum = 14
	maximum = 292
Slowest packet = 335833
Flit latency average = 128.167
	minimum = 5
	maximum = 283
Slowest flit = 5612380
Fragmentation average = 0.414827
	minimum = 0
	maximum = 19
Injected packet rate average = 0.00998336
	minimum = 0.0082 (at node 12)
	maximum = 0.0121333 (at node 681)
Accepted packet rate average = 0.00998504
	minimum = 0.00796667 (at node 413)
	maximum = 0.0119 (at node 938)
Injected flit rate average = 0.099834
	minimum = 0.082 (at node 12)
	maximum = 0.121333 (at node 681)
Accepted flit rate average= 0.0998526
	minimum = 0.0796667 (at node 413)
	maximum = 0.119 (at node 938)
Injected packet length average = 10
Accepted packet length average = 10.0002
Total in-flight flits = 13998 (13998 measured)
latency change    = 0.00053633
throughput change = 0.00208025
Draining all recorded packets ...
Draining remaining packets ...
Time taken is 60608 cycles
====== Overall Traffic Statistics ======
====== Traffic class 0 ======
Packet latency average = 137.901 (1 samples)
	minimum = 14 (1 samples)
	maximum = 296 (1 samples)
Network latency average = 137.405 (1 samples)
	minimum = 14 (1 samples)
	maximum = 292 (1 samples)
Flit latency average = 128.186 (1 samples)
	minimum = 5 (1 samples)
	maximum = 283 (1 samples)
Fragmentation average = 0.414966 (1 samples)
	minimum = 0 (1 samples)
	maximum = 19 (1 samples)
Injected packet rate average = 0.00998336 (1 samples)
	minimum = 0.0082 (1 samples)
	maximum = 0.0121333 (1 samples)
Accepted packet rate average = 0.00998504 (1 samples)
	minimum = 0.00796667 (1 samples)
	maximum = 0.0119 (1 samples)
Injected flit rate average = 0.099834 (1 samples)
	minimum = 0.082 (1 samples)
	maximum = 0.121333 (1 samples)
Accepted flit rate average = 0.0998526 (1 samples)
	minimum = 0.0796667 (1 samples)
	maximum = 0.119 (1 samples)
Injected packet size average = 10 (1 samples)
Accepted packet size average = 10.0002 (1 samples)
Hops average = 3.74346 (1 samples)
Total run time 426.192
BEGIN Configuration File: examples/dflyconfigugal
// $Id$

// Copyright (c) 2007-2015, Trustees of The Leland Stanford Junior University
// All rights reserved.
//
// Redistribution and use in source and binary forms, with or without
// modification, are permitted provided that the following conditions are met:
//
// Redistributions of source code must retain the above copyright notice, this
// list of conditions and the following disclaimer.
// Redistributions in binary form must reproduce the above copyright notice,
// this list of conditions and the following disclaimer in the documentation
// and/or other materials provided with the distribution.
//
// THIS SOFTWARE IS PROVIDED BY THE COPYRIGHT HOLDERS AND CONTRIBUTORS "AS IS"
// AND ANY EXPRESS OR IMPLIED WARRANTIES, INCLUDING, BUT NOT LIMITED TO, THE
// IMPLIED WARRANTIES OF MERCHANTABILITY AND FITNESS FOR A PARTICULAR PURPOSE
// ARE DISCLAIMED. IN NO EVENT SHALL THE COPYRIGHT OWNER OR CONTRIBUTORS BE
// LIABLE FOR ANY DIRECT, INDIRECT, INCIDENTAL, SPECIAL, EXEMPLARY, OR
// CONSEQUENTIAL DAMAGES (INCLUDING, BUT NOT LIMITED TO, PROCUREMENT OF
// SUBSTITUTE GOODS OR SERVICES; LOSS OF USE, DATA, OR PROFITS; OR BUSINESS
// INTERRUPTION) HOWEVER CAUSED AND ON ANY THEORY OF LIABILITY, WHETHER IN
// CONTRACT, STRICT LIABILITY, OR TORT (INCLUDING NEGLIGENCE OR OTHERWISE)
// ARISING IN ANY WAY OUT OF THE USE OF THIS SOFTWARE, EVEN IF ADVISED OF THE
// POSSIBILITY OF SUCH DAMAGE.

// Dragonfly
//




vc_buf_size = 256;


wait_for_tail_credit = 0;

//
// Router architecture
//
vc_allocator = separable_input_first; 
sw_allocator = separable_input_first;
alloc_iters  = 1;

credit_delay   = 2;
routing_delay  = 0;
vc_alloc_delay = 1;
sw_alloc_delay = 1;
st_final_delay = 1;

input_speedup     = 1;
output_speedup    = 1;
internal_speedup  = 2.0;


warmup_periods = 3;
sim_count          = 1;

sample_period  = 10000;  



routing_function = ugal;
num_vcs     = 3;

priority = none;
traffic       = uniform; 


packet_size = 10;
injection_rate_uses_flits=1;

topology = dragonflynew;

k  = 4;
n  = 1;

watch_out=-;

injection_rate =0.01;
stats_out = dflyugal_1.m;
injection_rate =0.05;
stats_out = dflyugal_5.m;
injection_rate =0.1;
stats_out = dflyugal_10.m;
injection_rate =0.15;
stats_out = dflyugal_15.m;

END Configuration File: examples/dflyconfigugal
 Dragonfly 
 p = 4 n = 1
 each switch - total radix =  15
 # of switches = 264
 # of channels = 2904
 # of nodes ( size of network ) = 1056
 # of groups (_g) = 33
 # of routers per group (_a) = 8
Done links
Class 0:
Packet latency average = 141.865
	minimum = 14
	maximum = 314
Network latency average = 141.063
	minimum = 14
	maximum = 309
Slowest packet = 32564
Flit latency average = 131.689
	minimum = 5
	maximum = 300
Slowest flit = 1135400
Fragmentation average = 0.633302
	minimum = 0
	maximum = 19
Injected packet rate average = 0.0149962
	minimum = 0.0115 (at node 59)
	maximum = 0.0192 (at node 372)
Accepted packet rate average = 0.0147779
	minimum = 0.0114 (at node 238)
	maximum = 0.0195 (at node 675)
Injected flit rate average = 0.149904
	minimum = 0.115 (at node 59)
	maximum = 0.192 (at node 372)
Accepted flit rate average= 0.147855
	minimum = 0.114 (at node 238)
	maximum = 0.195 (at node 675)
Injected packet length average = 9.99615
Accepted packet length average = 10.0051
Total in-flight flits = 22254 (0 measured)
latency change    = 1
throughput change = 1
Class 0:
Packet latency average = 141.94
	minimum = 14
	maximum = 314
Network latency average = 141.148
	minimum = 14
	maximum = 309
Slowest packet = 32564
Flit latency average = 131.772
	minimum = 5
	maximum = 300
Slowest flit = 1135400
Fragmentation average = 0.637465
	minimum = 0
	maximum = 27
Injected packet rate average = 0.0150163
	minimum = 0.0123 (at node 1022)
	maximum = 0.0184 (at node 158)
Accepted packet rate average = 0.0149146
	minimum = 0.0125 (at node 976)
	maximum = 0.0178 (at node 11)
Injected flit rate average = 0.150127
	minimum = 0.123 (at node 1022)
	maximum = 0.184 (at node 158)
Accepted flit rate average= 0.149179
	minimum = 0.125 (at node 976)
	maximum = 0.178 (at node 11)
Injected packet length average = 9.99756
Accepted packet length average = 10.0022
Total in-flight flits = 20785 (0 measured)
latency change    = 0.00052552
throughput change = 0.00887844
Class 0:
Packet latency average = 142.155
	minimum = 14
	maximum = 310
Network latency average = 141.357
	minimum = 14
	maximum = 310
Slowest packet = 324180
Flit latency average = 131.982
	minimum = 5
	maximum = 301
Slowest flit = 3241800
Fragmentation average = 0.641369
	minimum = 0
	maximum = 22
Injected packet rate average = 0.0150717
	minimum = 0.0114 (at node 809)
	maximum = 0.0187 (at node 431)
Accepted packet rate average = 0.0150544
	minimum = 0.0118 (at node 102)
	maximum = 0.0191 (at node 841)
Injected flit rate average = 0.150733
	minimum = 0.114 (at node 809)
	maximum = 0.187 (at node 431)
Accepted flit rate average= 0.150548
	minimum = 0.118 (at node 102)
	maximum = 0.191 (at node 841)
Injected packet length average = 10.001
Accepted packet length average = 10.0003
Total in-flight flits = 22567 (0 measured)
latency change    = 0.00151239
throughput change = 0.00909272
Warmed up ...Time used is 30000 cycles
Class 0:
Packet latency average = 141.966
	minimum = 14
	maximum = 304
Network latency average = 141.181
	minimum = 14
	maximum = 304
Slowest packet = 565674
Flit latency average = 131.906
	minimum = 5
	maximum = 309
Slowest flit = 4755910
Fragmentation average = 0.644336
	minimum = 0
	maximum = 21
Injected packet rate average = 0.0149582
	minimum = 0.0116 (at node 498)
	maximum = 0.0191 (at node 453)
Accepted packet rate average = 0.0149684
	minimum = 0.0105 (at node 362)
	maximum = 0.0206 (at node 582)
Injected flit rate average = 0.149559
	minimum = 0.1153 (at node 751)
	maximum = 0.1908 (at node 453)
Accepted flit rate average= 0.149685
	minimum = 0.105 (at node 362)
	maximum = 0.2055 (at node 582)
Injected packet length average = 9.99845
Accepted packet length average = 10.0001
Total in-flight flits = 21486 (21486 measured)
latency change    = 0.00133098
throughput change = 0.0057678
Class 0:
Packet latency average = 142.033
	minimum = 14
	maximum = 320
Network latency average = 141.248
	minimum = 14
	maximum = 320
Slowest packet = 749518
Flit latency average = 131.923
	minimum = 5
	maximum = 311
Slowest flit = 7495180
Fragmentation average = 0.640651
	minimum = 0
	maximum = 22
Injected packet rate average = 0.0149547
	minimum = 0.01215 (at node 465)
	maximum = 0.0179 (at node 453)
Accepted packet rate average = 0.0149646
	minimum = 0.0122 (at node 362)
	maximum = 0.0175 (at node 666)
Injected flit rate average = 0.149544
	minimum = 0.1219 (at node 465)
	maximum = 0.179 (at node 453)
Accepted flit rate average= 0.149644
	minimum = 0.122 (at node 362)
	maximum = 0.175 (at node 666)
Injected packet length average = 9.99978
Accepted packet length average = 9.99986
Total in-flight flits = 20521 (20521 measured)
latency change    = 0.000472755
throughput change = 0.000274009
Class 0:
Packet latency average = 142.109
	minimum = 14
	maximum = 320
Network latency average = 141.319
	minimum = 14
	maximum = 320
Slowest packet = 749518
Flit latency average = 131.977
	minimum = 5
	maximum = 311
Slowest flit = 7495180
Fragmentation average = 0.639776
	minimum = 0
	maximum = 24
Injected packet rate average = 0.0149917
	minimum = 0.0126667 (at node 1042)
	maximum = 0.0174 (at node 453)
Accepted packet rate average = 0.014994
	minimum = 0.0128667 (at node 524)
	maximum = 0.0174333 (at node 658)
Injected flit rate average = 0.149916
	minimum = 0.126667 (at node 1042)
	maximum = 0.174 (at node 453)
Accepted flit rate average= 0.149937
	minimum = 0.128667 (at node 524)
	maximum = 0.174333 (at node 658)
Injected packet length average = 9.99994
Accepted packet length average = 9.99981
Total in-flight flits = 21939 (21939 measured)
latency change    = 0.000533464
throughput change = 0.00195663
Draining all recorded packets ...
Draining remaining packets ...
Time taken is 60641 cycles
====== Overall Traffic Statistics ======
====== Traffic class 0 ======
Packet latency average = 142.141 (1 samples)
	minimum = 14 (1 samples)
	maximum = 320 (1 samples)
Network latency average = 141.351 (1 samples)
	minimum = 14 (1 samples)
	maximum = 320 (1 samples)
Flit latency average = 132.007 (1 samples)
	minimum = 5 (1 samples)
	maximum = 311 (1 samples)
Fragmentation average = 0.640021 (1 samples)
	minimum = 0 (1 samples)
	maximum = 24 (1 samples)
Injected packet rate average = 0.0149917 (1 samples)
	minimum = 0.0126667 (1 samples)
	maximum = 0.0174 (1 samples)
Accepted packet rate average = 0.014994 (1 samples)
	minimum = 0.0128667 (1 samples)
	maximum = 0.0174333 (1 samples)
Injected flit rate average = 0.149916 (1 samples)
	minimum = 0.126667 (1 samples)
	maximum = 0.174 (1 samples)
Accepted flit rate average = 0.149937 (1 samples)
	minimum = 0.128667 (1 samples)
	maximum = 0.174333 (1 samples)
Injected packet size average = 9.99994 (1 samples)
Accepted packet size average = 9.99981 (1 samples)
Hops average = 3.81398 (1 samples)
Total run time 570.271
BEGIN Configuration File: examples/dflyconfigugal
// $Id$

// Copyright (c) 2007-2015, Trustees of The Leland Stanford Junior University
// All rights reserved.
//
// Redistribution and use in source and binary forms, with or without
// modification, are permitted provided that the following conditions are met:
//
// Redistributions of source code must retain the above copyright notice, this
// list of conditions and the following disclaimer.
// Redistributions in binary form must reproduce the above copyright notice,
// this list of conditions and the following disclaimer in the documentation
// and/or other materials provided with the distribution.
//
// THIS SOFTWARE IS PROVIDED BY THE COPYRIGHT HOLDERS AND CONTRIBUTORS "AS IS"
// AND ANY EXPRESS OR IMPLIED WARRANTIES, INCLUDING, BUT NOT LIMITED TO, THE
// IMPLIED WARRANTIES OF MERCHANTABILITY AND FITNESS FOR A PARTICULAR PURPOSE
// ARE DISCLAIMED. IN NO EVENT SHALL THE COPYRIGHT OWNER OR CONTRIBUTORS BE
// LIABLE FOR ANY DIRECT, INDIRECT, INCIDENTAL, SPECIAL, EXEMPLARY, OR
// CONSEQUENTIAL DAMAGES (INCLUDING, BUT NOT LIMITED TO, PROCUREMENT OF
// SUBSTITUTE GOODS OR SERVICES; LOSS OF USE, DATA, OR PROFITS; OR BUSINESS
// INTERRUPTION) HOWEVER CAUSED AND ON ANY THEORY OF LIABILITY, WHETHER IN
// CONTRACT, STRICT LIABILITY, OR TORT (INCLUDING NEGLIGENCE OR OTHERWISE)
// ARISING IN ANY WAY OUT OF THE USE OF THIS SOFTWARE, EVEN IF ADVISED OF THE
// POSSIBILITY OF SUCH DAMAGE.

// Dragonfly
//




vc_buf_size = 256;


wait_for_tail_credit = 0;

//
// Router architecture
//
vc_allocator = separable_input_first; 
sw_allocator = separable_input_first;
alloc_iters  = 1;

credit_delay   = 2;
routing_delay  = 0;
vc_alloc_delay = 1;
sw_alloc_delay = 1;
st_final_delay = 1;

input_speedup     = 1;
output_speedup    = 1;
internal_speedup  = 2.0;


warmup_periods = 3;
sim_count          = 1;

sample_period  = 10000;  



routing_function = ugal;
num_vcs     = 3;

priority = none;
traffic       = uniform; 


packet_size = 10;
injection_rate_uses_flits=1;

topology = dragonflynew;

k  = 4;
n  = 1;

watch_out=-;

injection_rate =0.01;
stats_out = dflyugal_1.m;
injection_rate =0.05;
stats_out = dflyugal_5.m;
injection_rate =0.1;
stats_out = dflyugal_10.m;
injection_rate =0.15;
stats_out = dflyugal_15.m;
injection_rate =0.2;
stats_out = dflyugal_20.m;

END Configuration File: examples/dflyconfigugal
 Dragonfly 
 p = 4 n = 1
 each switch - total radix =  15
 # of switches = 264
 # of channels = 2904
 # of nodes ( size of network ) = 1056
 # of groups (_g) = 33
 # of routers per group (_a) = 8
Done links
Class 0:
Packet latency average = 146.084
	minimum = 14
	maximum = 326
Network latency average = 144.971
	minimum = 14
	maximum = 326
Slowest packet = 39404
Flit latency average = 135.467
	minimum = 5
	maximum = 317
Slowest flit = 394040
Fragmentation average = 0.855744
	minimum = 0
	maximum = 27
Injected packet rate average = 0.0200086
	minimum = 0.015 (at node 383)
	maximum = 0.0246 (at node 426)
Accepted packet rate average = 0.0197119
	minimum = 0.0144 (at node 943)
	maximum = 0.0243 (at node 968)
Injected flit rate average = 0.200003
	minimum = 0.15 (at node 383)
	maximum = 0.246 (at node 426)
Accepted flit rate average= 0.197229
	minimum = 0.144 (at node 943)
	maximum = 0.243 (at node 968)
Injected packet length average = 9.99583
Accepted packet length average = 10.0055
Total in-flight flits = 30177 (0 measured)
latency change    = 1
throughput change = 1
Class 0:
Packet latency average = 146.239
	minimum = 14
	maximum = 326
Network latency average = 145.122
	minimum = 14
	maximum = 326
Slowest packet = 39404
Flit latency average = 135.617
	minimum = 5
	maximum = 317
Slowest flit = 394040
Fragmentation average = 0.858538
	minimum = 0
	maximum = 27
Injected packet rate average = 0.0200182
	minimum = 0.0173 (at node 114)
	maximum = 0.0237 (at node 324)
Accepted packet rate average = 0.0198746
	minimum = 0.0165 (at node 1053)
	maximum = 0.0232 (at node 424)
Injected flit rate average = 0.200138
	minimum = 0.173 (at node 114)
	maximum = 0.2366 (at node 324)
Accepted flit rate average= 0.1988
	minimum = 0.165 (at node 1053)
	maximum = 0.232 (at node 424)
Injected packet length average = 9.99777
Accepted packet length average = 10.0027
Total in-flight flits = 29196 (0 measured)
latency change    = 0.0010567
throughput change = 0.00790444
Class 0:
Packet latency average = 146.497
	minimum = 14
	maximum = 329
Network latency average = 145.367
	minimum = 14
	maximum = 329
Slowest packet = 463543
Flit latency average = 135.854
	minimum = 5
	maximum = 320
Slowest flit = 4635430
Fragmentation average = 0.870698
	minimum = 0
	maximum = 28
Injected packet rate average = 0.0201177
	minimum = 0.0151 (at node 808)
	maximum = 0.0241 (at node 655)
Accepted packet rate average = 0.0201095
	minimum = 0.0158 (at node 76)
	maximum = 0.0251 (at node 799)
Injected flit rate average = 0.201186
	minimum = 0.151 (at node 808)
	maximum = 0.241 (at node 655)
Accepted flit rate average= 0.201086
	minimum = 0.1573 (at node 76)
	maximum = 0.251 (at node 799)
Injected packet length average = 10.0004
Accepted packet length average = 9.99955
Total in-flight flits = 30162 (0 measured)
latency change    = 0.00176604
throughput change = 0.0113668
Warmed up ...Time used is 30000 cycles
Class 0:
Packet latency average = 146.207
	minimum = 14
	maximum = 316
Network latency average = 145.088
	minimum = 14
	maximum = 316
Slowest packet = 668304
Flit latency average = 135.724
	minimum = 5
	maximum = 307
Slowest flit = 6683040
Fragmentation average = 0.862467
	minimum = 0
	maximum = 28
Injected packet rate average = 0.0199694
	minimum = 0.0158 (at node 654)
	maximum = 0.0255 (at node 665)
Accepted packet rate average = 0.0199739
	minimum = 0.0154 (at node 710)
	maximum = 0.0241 (at node 1007)
Injected flit rate average = 0.199675
	minimum = 0.158 (at node 654)
	maximum = 0.255 (at node 665)
Accepted flit rate average= 0.199734
	minimum = 0.1538 (at node 710)
	maximum = 0.2412 (at node 1007)
Injected packet length average = 9.99902
Accepted packet length average = 9.99975
Total in-flight flits = 29744 (29744 measured)
latency change    = 0.00198544
throughput change = 0.00676848
Class 0:
Packet latency average = 146.343
	minimum = 14
	maximum = 351
Network latency average = 145.218
	minimum = 14
	maximum = 351
Slowest packet = 952324
Flit latency average = 135.78
	minimum = 5
	maximum = 342
Slowest flit = 9523249
Fragmentation average = 0.862921
	minimum = 0
	maximum = 28
Injected packet rate average = 0.0199813
	minimum = 0.0171 (at node 1050)
	maximum = 0.0229 (at node 257)
Accepted packet rate average = 0.0199911
	minimum = 0.0167 (at node 374)
	maximum = 0.0228 (at node 396)
Injected flit rate average = 0.199816
	minimum = 0.171 (at node 1050)
	maximum = 0.229 (at node 257)
Accepted flit rate average= 0.199912
	minimum = 0.16745 (at node 374)
	maximum = 0.2282 (at node 396)
Injected packet length average = 10.0001
Accepted packet length average = 10
Total in-flight flits = 28072 (28072 measured)
latency change    = 0.000930906
throughput change = 0.000893857
Class 0:
Packet latency average = 146.377
	minimum = 14
	maximum = 351
Network latency average = 145.252
	minimum = 14
	maximum = 351
Slowest packet = 952324
Flit latency average = 135.789
	minimum = 5
	maximum = 342
Slowest flit = 9523249
Fragmentation average = 0.865133
	minimum = 0
	maximum = 28
Injected packet rate average = 0.0200097
	minimum = 0.0172 (at node 418)
	maximum = 0.0225333 (at node 509)
Accepted packet rate average = 0.0200098
	minimum = 0.0175 (at node 720)
	maximum = 0.0226667 (at node 139)
Injected flit rate average = 0.200097
	minimum = 0.172 (at node 418)
	maximum = 0.225333 (at node 509)
Accepted flit rate average= 0.200102
	minimum = 0.175 (at node 720)
	maximum = 0.226667 (at node 139)
Injected packet length average = 10
Accepted packet length average = 10.0002
Total in-flight flits = 29993 (29993 measured)
latency change    = 0.00023029
throughput change = 0.000948694
Draining all recorded packets ...
Draining remaining packets ...
Time taken is 60655 cycles
====== Overall Traffic Statistics ======
====== Traffic class 0 ======
Packet latency average = 146.423 (1 samples)
	minimum = 14 (1 samples)
	maximum = 351 (1 samples)
Network latency average = 145.298 (1 samples)
	minimum = 14 (1 samples)
	maximum = 351 (1 samples)
Flit latency average = 135.838 (1 samples)
	minimum = 5 (1 samples)
	maximum = 342 (1 samples)
Fragmentation average = 0.865713 (1 samples)
	minimum = 0 (1 samples)
	maximum = 28 (1 samples)
Injected packet rate average = 0.0200097 (1 samples)
	minimum = 0.0172 (1 samples)
	maximum = 0.0225333 (1 samples)
Accepted packet rate average = 0.0200098 (1 samples)
	minimum = 0.0175 (1 samples)
	maximum = 0.0226667 (1 samples)
Injected flit rate average = 0.200097 (1 samples)
	minimum = 0.172 (1 samples)
	maximum = 0.225333 (1 samples)
Accepted flit rate average = 0.200102 (1 samples)
	minimum = 0.175 (1 samples)
	maximum = 0.226667 (1 samples)
Injected packet size average = 10 (1 samples)
Accepted packet size average = 10.0002 (1 samples)
Hops average = 3.87623 (1 samples)
Total run time 686.67
BEGIN Configuration File: examples/dflyconfigugal
// $Id$

// Copyright (c) 2007-2015, Trustees of The Leland Stanford Junior University
// All rights reserved.
//
// Redistribution and use in source and binary forms, with or without
// modification, are permitted provided that the following conditions are met:
//
// Redistributions of source code must retain the above copyright notice, this
// list of conditions and the following disclaimer.
// Redistributions in binary form must reproduce the above copyright notice,
// this list of conditions and the following disclaimer in the documentation
// and/or other materials provided with the distribution.
//
// THIS SOFTWARE IS PROVIDED BY THE COPYRIGHT HOLDERS AND CONTRIBUTORS "AS IS"
// AND ANY EXPRESS OR IMPLIED WARRANTIES, INCLUDING, BUT NOT LIMITED TO, THE
// IMPLIED WARRANTIES OF MERCHANTABILITY AND FITNESS FOR A PARTICULAR PURPOSE
// ARE DISCLAIMED. IN NO EVENT SHALL THE COPYRIGHT OWNER OR CONTRIBUTORS BE
// LIABLE FOR ANY DIRECT, INDIRECT, INCIDENTAL, SPECIAL, EXEMPLARY, OR
// CONSEQUENTIAL DAMAGES (INCLUDING, BUT NOT LIMITED TO, PROCUREMENT OF
// SUBSTITUTE GOODS OR SERVICES; LOSS OF USE, DATA, OR PROFITS; OR BUSINESS
// INTERRUPTION) HOWEVER CAUSED AND ON ANY THEORY OF LIABILITY, WHETHER IN
// CONTRACT, STRICT LIABILITY, OR TORT (INCLUDING NEGLIGENCE OR OTHERWISE)
// ARISING IN ANY WAY OUT OF THE USE OF THIS SOFTWARE, EVEN IF ADVISED OF THE
// POSSIBILITY OF SUCH DAMAGE.

// Dragonfly
//




vc_buf_size = 256;


wait_for_tail_credit = 0;

//
// Router architecture
//
vc_allocator = separable_input_first; 
sw_allocator = separable_input_first;
alloc_iters  = 1;

credit_delay   = 2;
routing_delay  = 0;
vc_alloc_delay = 1;
sw_alloc_delay = 1;
st_final_delay = 1;

input_speedup     = 1;
output_speedup    = 1;
internal_speedup  = 2.0;


warmup_periods = 3;
sim_count          = 1;

sample_period  = 10000;  



routing_function = ugal;
num_vcs     = 3;

priority = none;
traffic       = uniform; 


packet_size = 10;
injection_rate_uses_flits=1;

topology = dragonflynew;

k  = 4;
n  = 1;

watch_out=-;

injection_rate =0.01;
stats_out = dflyugal_1.m;
injection_rate =0.05;
stats_out = dflyugal_5.m;
injection_rate =0.1;
stats_out = dflyugal_10.m;
injection_rate =0.15;
stats_out = dflyugal_15.m;
injection_rate =0.2;
stats_out = dflyugal_20.m;
injection_rate =0.25;
stats_out = dflyugal_25.m;

END Configuration File: examples/dflyconfigugal
 Dragonfly 
 p = 4 n = 1
 each switch - total radix =  15
 # of switches = 264
 # of channels = 2904
 # of nodes ( size of network ) = 1056
 # of groups (_g) = 33
 # of routers per group (_a) = 8
Done links
Class 0:
Packet latency average = 150.5
	minimum = 14
	maximum = 365
Network latency average = 148.981
	minimum = 14
	maximum = 365
Slowest packet = 68564
Flit latency average = 139.356
	minimum = 5
	maximum = 356
Slowest flit = 685640
Fragmentation average = 1.0596
	minimum = 0
	maximum = 25
Injected packet rate average = 0.0249913
	minimum = 0.0201 (at node 154)
	maximum = 0.0298 (at node 161)
Accepted packet rate average = 0.0246109
	minimum = 0.0195 (at node 610)
	maximum = 0.0297 (at node 745)
Injected flit rate average = 0.249798
	minimum = 0.201 (at node 154)
	maximum = 0.2978 (at node 161)
Accepted flit rate average= 0.246241
	minimum = 0.195 (at node 610)
	maximum = 0.2978 (at node 745)
Injected packet length average = 9.99541
Accepted packet length average = 10.0054
Total in-flight flits = 38778 (0 measured)
latency change    = 1
throughput change = 1
Class 0:
Packet latency average = 150.72
	minimum = 14
	maximum = 365
Network latency average = 149.211
	minimum = 14
	maximum = 365
Slowest packet = 68564
Flit latency average = 139.58
	minimum = 5
	maximum = 356
Slowest flit = 685640
Fragmentation average = 1.06889
	minimum = 0
	maximum = 33
Injected packet rate average = 0.0250107
	minimum = 0.0214 (at node 575)
	maximum = 0.02845 (at node 971)
Accepted packet rate average = 0.024825
	minimum = 0.0216 (at node 196)
	maximum = 0.028 (at node 188)
Injected flit rate average = 0.250052
	minimum = 0.2139 (at node 575)
	maximum = 0.2845 (at node 971)
Accepted flit rate average= 0.248309
	minimum = 0.216 (at node 196)
	maximum = 0.28025 (at node 188)
Injected packet length average = 9.99782
Accepted packet length average = 10.0024
Total in-flight flits = 37964 (0 measured)
latency change    = 0.00145674
throughput change = 0.00832945
Class 0:
Packet latency average = 150.86
	minimum = 14
	maximum = 351
Network latency average = 149.37
	minimum = 14
	maximum = 351
Slowest packet = 551954
Flit latency average = 139.738
	minimum = 5
	maximum = 342
Slowest flit = 5519549
Fragmentation average = 1.0709
	minimum = 0
	maximum = 31
Injected packet rate average = 0.025117
	minimum = 0.0201 (at node 980)
	maximum = 0.0302 (at node 630)
Accepted packet rate average = 0.0251081
	minimum = 0.0199 (at node 437)
	maximum = 0.0305 (at node 200)
Injected flit rate average = 0.251168
	minimum = 0.201 (at node 980)
	maximum = 0.3027 (at node 882)
Accepted flit rate average= 0.251099
	minimum = 0.199 (at node 437)
	maximum = 0.305 (at node 200)
Injected packet length average = 9.99995
Accepted packet length average = 10.0007
Total in-flight flits = 38712 (0 measured)
latency change    = 0.000932075
throughput change = 0.0111099
Warmed up ...Time used is 30000 cycles
Class 0:
Packet latency average = 150.585
	minimum = 14
	maximum = 339
Network latency average = 149.103
	minimum = 14
	maximum = 337
Slowest packet = 954743
Flit latency average = 139.627
	minimum = 5
	maximum = 328
Slowest flit = 10214110
Fragmentation average = 1.05849
	minimum = 0
	maximum = 33
Injected packet rate average = 0.0249731
	minimum = 0.0201 (at node 810)
	maximum = 0.0303 (at node 199)
Accepted packet rate average = 0.0249769
	minimum = 0.02 (at node 453)
	maximum = 0.0295 (at node 485)
Injected flit rate average = 0.249712
	minimum = 0.201 (at node 810)
	maximum = 0.303 (at node 199)
Accepted flit rate average= 0.249767
	minimum = 0.1997 (at node 453)
	maximum = 0.295 (at node 610)
Injected packet length average = 9.99923
Accepted packet length average = 9.99994
Total in-flight flits = 38328 (38328 measured)
latency change    = 0.00182958
throughput change = 0.00532996
Class 0:
Packet latency average = 150.719
	minimum = 14
	maximum = 339
Network latency average = 149.226
	minimum = 14
	maximum = 337
Slowest packet = 954743
Flit latency average = 139.674
	minimum = 5
	maximum = 328
Slowest flit = 10214110
Fragmentation average = 1.06066
	minimum = 0
	maximum = 33
Injected packet rate average = 0.0249785
	minimum = 0.02195 (at node 165)
	maximum = 0.0284 (at node 878)
Accepted packet rate average = 0.0249875
	minimum = 0.0218 (at node 1029)
	maximum = 0.029 (at node 859)
Injected flit rate average = 0.249792
	minimum = 0.21975 (at node 165)
	maximum = 0.284 (at node 878)
Accepted flit rate average= 0.249873
	minimum = 0.21835 (at node 1029)
	maximum = 0.29 (at node 859)
Injected packet length average = 10.0003
Accepted packet length average = 9.99995
Total in-flight flits = 36840 (36840 measured)
latency change    = 0.000891819
throughput change = 0.000423321
Class 0:
Packet latency average = 150.777
	minimum = 14
	maximum = 339
Network latency average = 149.281
	minimum = 14
	maximum = 337
Slowest packet = 954743
Flit latency average = 139.701
	minimum = 5
	maximum = 328
Slowest flit = 10214110
Fragmentation average = 1.06429
	minimum = 0
	maximum = 33
Injected packet rate average = 0.0250094
	minimum = 0.0223333 (at node 219)
	maximum = 0.0278 (at node 878)
Accepted packet rate average = 0.0250102
	minimum = 0.0224 (at node 607)
	maximum = 0.0281333 (at node 246)
Injected flit rate average = 0.250094
	minimum = 0.223333 (at node 219)
	maximum = 0.278 (at node 878)
Accepted flit rate average= 0.250097
	minimum = 0.223767 (at node 607)
	maximum = 0.281333 (at node 246)
Injected packet length average = 9.99999
Accepted packet length average = 9.99979
Total in-flight flits = 38632 (38632 measured)
latency change    = 0.000386021
throughput change = 0.000893216
Draining all recorded packets ...
Draining remaining packets ...
Time taken is 60668 cycles
====== Overall Traffic Statistics ======
====== Traffic class 0 ======
Packet latency average = 150.837 (1 samples)
	minimum = 14 (1 samples)
	maximum = 339 (1 samples)
Network latency average = 149.34 (1 samples)
	minimum = 14 (1 samples)
	maximum = 337 (1 samples)
Flit latency average = 139.759 (1 samples)
	minimum = 5 (1 samples)
	maximum = 328 (1 samples)
Fragmentation average = 1.06501 (1 samples)
	minimum = 0 (1 samples)
	maximum = 33 (1 samples)
Injected packet rate average = 0.0250094 (1 samples)
	minimum = 0.0223333 (1 samples)
	maximum = 0.0278 (1 samples)
Accepted packet rate average = 0.0250102 (1 samples)
	minimum = 0.0224 (1 samples)
	maximum = 0.0281333 (1 samples)
Injected flit rate average = 0.250094 (1 samples)
	minimum = 0.223333 (1 samples)
	maximum = 0.278 (1 samples)
Accepted flit rate average = 0.250097 (1 samples)
	minimum = 0.223767 (1 samples)
	maximum = 0.281333 (1 samples)
Injected packet size average = 9.99999 (1 samples)
Accepted packet size average = 9.99979 (1 samples)
Hops average = 3.93004 (1 samples)
Total run time 677.678
BEGIN Configuration File: examples/dflyconfigugal
// $Id$

// Copyright (c) 2007-2015, Trustees of The Leland Stanford Junior University
// All rights reserved.
//
// Redistribution and use in source and binary forms, with or without
// modification, are permitted provided that the following conditions are met:
//
// Redistributions of source code must retain the above copyright notice, this
// list of conditions and the following disclaimer.
// Redistributions in binary form must reproduce the above copyright notice,
// this list of conditions and the following disclaimer in the documentation
// and/or other materials provided with the distribution.
//
// THIS SOFTWARE IS PROVIDED BY THE COPYRIGHT HOLDERS AND CONTRIBUTORS "AS IS"
// AND ANY EXPRESS OR IMPLIED WARRANTIES, INCLUDING, BUT NOT LIMITED TO, THE
// IMPLIED WARRANTIES OF MERCHANTABILITY AND FITNESS FOR A PARTICULAR PURPOSE
// ARE DISCLAIMED. IN NO EVENT SHALL THE COPYRIGHT OWNER OR CONTRIBUTORS BE
// LIABLE FOR ANY DIRECT, INDIRECT, INCIDENTAL, SPECIAL, EXEMPLARY, OR
// CONSEQUENTIAL DAMAGES (INCLUDING, BUT NOT LIMITED TO, PROCUREMENT OF
// SUBSTITUTE GOODS OR SERVICES; LOSS OF USE, DATA, OR PROFITS; OR BUSINESS
// INTERRUPTION) HOWEVER CAUSED AND ON ANY THEORY OF LIABILITY, WHETHER IN
// CONTRACT, STRICT LIABILITY, OR TORT (INCLUDING NEGLIGENCE OR OTHERWISE)
// ARISING IN ANY WAY OUT OF THE USE OF THIS SOFTWARE, EVEN IF ADVISED OF THE
// POSSIBILITY OF SUCH DAMAGE.

// Dragonfly
//




vc_buf_size = 256;


wait_for_tail_credit = 0;

//
// Router architecture
//
vc_allocator = separable_input_first; 
sw_allocator = separable_input_first;
alloc_iters  = 1;

credit_delay   = 2;
routing_delay  = 0;
vc_alloc_delay = 1;
sw_alloc_delay = 1;
st_final_delay = 1;

input_speedup     = 1;
output_speedup    = 1;
internal_speedup  = 2.0;


warmup_periods = 3;
sim_count          = 1;

sample_period  = 10000;  



routing_function = ugal;
num_vcs     = 3;

priority = none;
traffic       = uniform; 


packet_size = 10;
injection_rate_uses_flits=1;

topology = dragonflynew;

k  = 4;
n  = 1;

watch_out=-;

injection_rate =0.01;
stats_out = dflyugal_1.m;
injection_rate =0.05;
stats_out = dflyugal_5.m;
injection_rate =0.1;
stats_out = dflyugal_10.m;
injection_rate =0.15;
stats_out = dflyugal_15.m;
injection_rate =0.2;
stats_out = dflyugal_20.m;
injection_rate =0.25;
stats_out = dflyugal_25.m;
injection_rate =0.3;
stats_out = dflyugal_30.m;

END Configuration File: examples/dflyconfigugal
 Dragonfly 
 p = 4 n = 1
 each switch - total radix =  15
 # of switches = 264
 # of channels = 2904
 # of nodes ( size of network ) = 1056
 # of groups (_g) = 33
 # of routers per group (_a) = 8
Done links
Class 0:
Packet latency average = 154.985
	minimum = 14
	maximum = 353
Network latency average = 153.057
	minimum = 14
	maximum = 345
Slowest packet = 27650
Flit latency average = 143.333
	minimum = 5
	maximum = 336
Slowest flit = 2862870
Fragmentation average = 1.22797
	minimum = 0
	maximum = 30
Injected packet rate average = 0.0300229
	minimum = 0.0241 (at node 199)
	maximum = 0.0364 (at node 886)
Accepted packet rate average = 0.0295608
	minimum = 0.0248 (at node 663)
	maximum = 0.0347 (at node 279)
Injected flit rate average = 0.30009
	minimum = 0.2405 (at node 199)
	maximum = 0.3632 (at node 886)
Accepted flit rate average= 0.295761
	minimum = 0.248 (at node 663)
	maximum = 0.347 (at node 279)
Injected packet length average = 9.99536
Accepted packet length average = 10.0052
Total in-flight flits = 47179 (0 measured)
latency change    = 1
throughput change = 1
Class 0:
Packet latency average = 155.107
	minimum = 14
	maximum = 366
Network latency average = 153.181
	minimum = 14
	maximum = 366
Slowest packet = 425523
Flit latency average = 143.455
	minimum = 5
	maximum = 357
Slowest flit = 4255230
Fragmentation average = 1.23243
	minimum = 0
	maximum = 32
Injected packet rate average = 0.030025
	minimum = 0.0256 (at node 199)
	maximum = 0.03385 (at node 502)
Accepted packet rate average = 0.0297971
	minimum = 0.0256 (at node 78)
	maximum = 0.0336 (at node 147)
Injected flit rate average = 0.300183
	minimum = 0.256 (at node 199)
	maximum = 0.3385 (at node 502)
Accepted flit rate average= 0.29805
	minimum = 0.25645 (at node 78)
	maximum = 0.33645 (at node 147)
Injected packet length average = 9.99778
Accepted packet length average = 10.0027
Total in-flight flits = 46470 (0 measured)
latency change    = 0.00078329
throughput change = 0.00767744
Class 0:
Packet latency average = 155.475
	minimum = 14
	maximum = 358
Network latency average = 153.55
	minimum = 14
	maximum = 358
Slowest packet = 649646
Flit latency average = 143.818
	minimum = 5
	maximum = 349
Slowest flit = 6496460
Fragmentation average = 1.23716
	minimum = 0
	maximum = 39
Injected packet rate average = 0.0301304
	minimum = 0.0251 (at node 252)
	maximum = 0.0351 (at node 755)
Accepted packet rate average = 0.0301124
	minimum = 0.0252 (at node 456)
	maximum = 0.036 (at node 892)
Injected flit rate average = 0.301308
	minimum = 0.2517 (at node 252)
	maximum = 0.3508 (at node 755)
Accepted flit rate average= 0.301122
	minimum = 0.2513 (at node 456)
	maximum = 0.36 (at node 892)
Injected packet length average = 10.0001
Accepted packet length average = 9.99994
Total in-flight flits = 48390 (0 measured)
latency change    = 0.00236804
throughput change = 0.0102033
Warmed up ...Time used is 30000 cycles
Class 0:
Packet latency average = 155.341
	minimum = 14
	maximum = 381
Network latency average = 153.421
	minimum = 14
	maximum = 381
Slowest packet = 1232661
Flit latency average = 143.859
	minimum = 5
	maximum = 372
Slowest flit = 12326610
Fragmentation average = 1.24093
	minimum = 0
	maximum = 35
Injected packet rate average = 0.0299675
	minimum = 0.0247 (at node 634)
	maximum = 0.0349 (at node 748)
Accepted packet rate average = 0.029983
	minimum = 0.0248 (at node 484)
	maximum = 0.0362 (at node 914)
Injected flit rate average = 0.299658
	minimum = 0.247 (at node 634)
	maximum = 0.349 (at node 748)
Accepted flit rate average= 0.29984
	minimum = 0.248 (at node 484)
	maximum = 0.362 (at node 914)
Injected packet length average = 9.99943
Accepted packet length average = 10.0003
Total in-flight flits = 46648 (46648 measured)
latency change    = 0.000861235
throughput change = 0.00427564
Class 0:
Packet latency average = 155.337
	minimum = 14
	maximum = 381
Network latency average = 153.403
	minimum = 14
	maximum = 381
Slowest packet = 1232661
Flit latency average = 143.762
	minimum = 5
	maximum = 372
Slowest flit = 12326610
Fragmentation average = 1.23237
	minimum = 0
	maximum = 37
Injected packet rate average = 0.0299592
	minimum = 0.0261 (at node 117)
	maximum = 0.0334 (at node 712)
Accepted packet rate average = 0.0299719
	minimum = 0.0255 (at node 484)
	maximum = 0.03415 (at node 1044)
Injected flit rate average = 0.299595
	minimum = 0.26085 (at node 117)
	maximum = 0.334 (at node 712)
Accepted flit rate average= 0.29971
	minimum = 0.255 (at node 484)
	maximum = 0.3415 (at node 1044)
Injected packet length average = 10.0001
Accepted packet length average = 9.9997
Total in-flight flits = 45908 (45908 measured)
latency change    = 2.68835e-05
throughput change = 0.000434764
Class 0:
Packet latency average = 155.342
	minimum = 14
	maximum = 381
Network latency average = 153.412
	minimum = 14
	maximum = 381
Slowest packet = 1232661
Flit latency average = 143.743
	minimum = 5
	maximum = 372
Slowest flit = 12326610
Fragmentation average = 1.23064
	minimum = 0
	maximum = 37
Injected packet rate average = 0.0299894
	minimum = 0.0269333 (at node 781)
	maximum = 0.0326 (at node 712)
Accepted packet rate average = 0.0299926
	minimum = 0.0273 (at node 162)
	maximum = 0.0342333 (at node 889)
Injected flit rate average = 0.299893
	minimum = 0.269367 (at node 781)
	maximum = 0.325867 (at node 712)
Accepted flit rate average= 0.299925
	minimum = 0.273 (at node 162)
	maximum = 0.3426 (at node 889)
Injected packet length average = 9.99997
Accepted packet length average = 9.99996
Total in-flight flits = 47414 (47414 measured)
latency change    = 3.03804e-05
throughput change = 0.000717561
Draining all recorded packets ...
Draining remaining packets ...
Time taken is 60657 cycles
====== Overall Traffic Statistics ======
====== Traffic class 0 ======
Packet latency average = 155.397 (1 samples)
	minimum = 14 (1 samples)
	maximum = 381 (1 samples)
Network latency average = 153.467 (1 samples)
	minimum = 14 (1 samples)
	maximum = 381 (1 samples)
Flit latency average = 143.78 (1 samples)
	minimum = 5 (1 samples)
	maximum = 372 (1 samples)
Fragmentation average = 1.23162 (1 samples)
	minimum = 0 (1 samples)
	maximum = 37 (1 samples)
Injected packet rate average = 0.0299894 (1 samples)
	minimum = 0.0269333 (1 samples)
	maximum = 0.0326 (1 samples)
Accepted packet rate average = 0.0299926 (1 samples)
	minimum = 0.0273 (1 samples)
	maximum = 0.0342333 (1 samples)
Injected flit rate average = 0.299893 (1 samples)
	minimum = 0.269367 (1 samples)
	maximum = 0.325867 (1 samples)
Accepted flit rate average = 0.299925 (1 samples)
	minimum = 0.273 (1 samples)
	maximum = 0.3426 (1 samples)
Injected packet size average = 9.99997 (1 samples)
Accepted packet size average = 9.99996 (1 samples)
Hops average = 3.97274 (1 samples)
Total run time 838.875
BEGIN Configuration File: examples/dflyconfigugal
// $Id$

// Copyright (c) 2007-2015, Trustees of The Leland Stanford Junior University
// All rights reserved.
//
// Redistribution and use in source and binary forms, with or without
// modification, are permitted provided that the following conditions are met:
//
// Redistributions of source code must retain the above copyright notice, this
// list of conditions and the following disclaimer.
// Redistributions in binary form must reproduce the above copyright notice,
// this list of conditions and the following disclaimer in the documentation
// and/or other materials provided with the distribution.
//
// THIS SOFTWARE IS PROVIDED BY THE COPYRIGHT HOLDERS AND CONTRIBUTORS "AS IS"
// AND ANY EXPRESS OR IMPLIED WARRANTIES, INCLUDING, BUT NOT LIMITED TO, THE
// IMPLIED WARRANTIES OF MERCHANTABILITY AND FITNESS FOR A PARTICULAR PURPOSE
// ARE DISCLAIMED. IN NO EVENT SHALL THE COPYRIGHT OWNER OR CONTRIBUTORS BE
// LIABLE FOR ANY DIRECT, INDIRECT, INCIDENTAL, SPECIAL, EXEMPLARY, OR
// CONSEQUENTIAL DAMAGES (INCLUDING, BUT NOT LIMITED TO, PROCUREMENT OF
// SUBSTITUTE GOODS OR SERVICES; LOSS OF USE, DATA, OR PROFITS; OR BUSINESS
// INTERRUPTION) HOWEVER CAUSED AND ON ANY THEORY OF LIABILITY, WHETHER IN
// CONTRACT, STRICT LIABILITY, OR TORT (INCLUDING NEGLIGENCE OR OTHERWISE)
// ARISING IN ANY WAY OUT OF THE USE OF THIS SOFTWARE, EVEN IF ADVISED OF THE
// POSSIBILITY OF SUCH DAMAGE.

// Dragonfly
//




vc_buf_size = 256;


wait_for_tail_credit = 0;

//
// Router architecture
//
vc_allocator = separable_input_first; 
sw_allocator = separable_input_first;
alloc_iters  = 1;

credit_delay   = 2;
routing_delay  = 0;
vc_alloc_delay = 1;
sw_alloc_delay = 1;
st_final_delay = 1;

input_speedup     = 1;
output_speedup    = 1;
internal_speedup  = 2.0;


warmup_periods = 3;
sim_count          = 1;

sample_period  = 10000;  



routing_function = ugal;
num_vcs     = 3;

priority = none;
traffic       = uniform; 


packet_size = 10;
injection_rate_uses_flits=1;

topology = dragonflynew;

k  = 4;
n  = 1;

watch_out=-;

injection_rate =0.01;
stats_out = dflyugal_1.m;
injection_rate =0.05;
stats_out = dflyugal_5.m;
injection_rate =0.1;
stats_out = dflyugal_10.m;
injection_rate =0.15;
stats_out = dflyugal_15.m;
injection_rate =0.2;
stats_out = dflyugal_20.m;
injection_rate =0.25;
stats_out = dflyugal_25.m;
injection_rate =0.3;
stats_out = dflyugal_30.m;
injection_rate =0.35;
stats_out = dflyugal_35.m;

END Configuration File: examples/dflyconfigugal
 Dragonfly 
 p = 4 n = 1
 each switch - total radix =  15
 # of switches = 264
 # of channels = 2904
 # of nodes ( size of network ) = 1056
 # of groups (_g) = 33
 # of routers per group (_a) = 8
Done links
Class 0:
Packet latency average = 159.73
	minimum = 14
	maximum = 375
Network latency average = 157.309
	minimum = 14
	maximum = 366
Slowest packet = 45066
Flit latency average = 147.512
	minimum = 5
	maximum = 357
Slowest flit = 1776360
Fragmentation average = 1.35233
	minimum = 0
	maximum = 41
Injected packet rate average = 0.035017
	minimum = 0.0286 (at node 383)
	maximum = 0.0409 (at node 332)
Accepted packet rate average = 0.0344598
	minimum = 0.0289 (at node 867)
	maximum = 0.0405 (at node 210)
Injected flit rate average = 0.350006
	minimum = 0.2853 (at node 383)
	maximum = 0.409 (at node 332)
Accepted flit rate average= 0.344784
	minimum = 0.2895 (at node 867)
	maximum = 0.405 (at node 210)
Injected packet length average = 9.99531
Accepted packet length average = 10.0054
Total in-flight flits = 56878 (0 measured)
latency change    = 1
throughput change = 1
Class 0:
Packet latency average = 159.993
	minimum = 14
	maximum = 395
Network latency average = 157.574
	minimum = 14
	maximum = 395
Slowest packet = 506223
Flit latency average = 147.774
	minimum = 5
	maximum = 386
Slowest flit = 5062230
Fragmentation average = 1.3561
	minimum = 0
	maximum = 42
Injected packet rate average = 0.0350434
	minimum = 0.031 (at node 7)
	maximum = 0.03975 (at node 332)
Accepted packet rate average = 0.03477
	minimum = 0.03055 (at node 602)
	maximum = 0.0395 (at node 135)
Injected flit rate average = 0.350353
	minimum = 0.3098 (at node 7)
	maximum = 0.3975 (at node 332)
Accepted flit rate average= 0.34779
	minimum = 0.3055 (at node 602)
	maximum = 0.395 (at node 135)
Injected packet length average = 9.9977
Accepted packet length average = 10.0026
Total in-flight flits = 55825 (0 measured)
latency change    = 0.00164434
throughput change = 0.00864372
Class 0:
Packet latency average = 160.177
	minimum = 14
	maximum = 390
Network latency average = 157.732
	minimum = 14
	maximum = 390
Slowest packet = 805151
Flit latency average = 147.932
	minimum = 5
	maximum = 381
Slowest flit = 8051510
Fragmentation average = 1.35447
	minimum = 0
	maximum = 33
Injected packet rate average = 0.0351009
	minimum = 0.0281 (at node 468)
	maximum = 0.0414 (at node 62)
Accepted packet rate average = 0.035091
	minimum = 0.0288 (at node 897)
	maximum = 0.0405 (at node 978)
Injected flit rate average = 0.351011
	minimum = 0.2805 (at node 468)
	maximum = 0.414 (at node 62)
Accepted flit rate average= 0.350896
	minimum = 0.2876 (at node 897)
	maximum = 0.405 (at node 978)
Injected packet length average = 10
Accepted packet length average = 9.99961
Total in-flight flits = 57021 (0 measured)
latency change    = 0.00114783
throughput change = 0.00885085
Warmed up ...Time used is 30000 cycles
Class 0:
Packet latency average = 159.865
	minimum = 14
	maximum = 390
Network latency average = 157.442
	minimum = 14
	maximum = 390
Slowest packet = 1177472
Flit latency average = 147.844
	minimum = 5
	maximum = 381
Slowest flit = 11774720
Fragmentation average = 1.34491
	minimum = 0
	maximum = 42
Injected packet rate average = 0.0349892
	minimum = 0.0296 (at node 371)
	maximum = 0.0406 (at node 393)
Accepted packet rate average = 0.0349941
	minimum = 0.0287 (at node 484)
	maximum = 0.0417 (at node 531)
Injected flit rate average = 0.34988
	minimum = 0.296 (at node 371)
	maximum = 0.4051 (at node 393)
Accepted flit rate average= 0.349946
	minimum = 0.2874 (at node 484)
	maximum = 0.4167 (at node 531)
Injected packet length average = 9.99967
Accepted packet length average = 10.0001
Total in-flight flits = 56446 (56446 measured)
latency change    = 0.00195048
throughput change = 0.00271389
Class 0:
Packet latency average = 159.983
	minimum = 14
	maximum = 398
Network latency average = 157.561
	minimum = 14
	maximum = 390
Slowest packet = 1177472
Flit latency average = 147.863
	minimum = 5
	maximum = 381
Slowest flit = 11774720
Fragmentation average = 1.34824
	minimum = 0
	maximum = 42
Injected packet rate average = 0.0349841
	minimum = 0.0313 (at node 875)
	maximum = 0.0388 (at node 277)
Accepted packet rate average = 0.0349934
	minimum = 0.0311 (at node 581)
	maximum = 0.0394 (at node 276)
Injected flit rate average = 0.349852
	minimum = 0.3134 (at node 875)
	maximum = 0.3884 (at node 277)
Accepted flit rate average= 0.349941
	minimum = 0.311 (at node 581)
	maximum = 0.39405 (at node 276)
Injected packet length average = 10.0003
Accepted packet length average = 10.0002
Total in-flight flits = 54905 (54905 measured)
latency change    = 0.000735344
throughput change = 1.54247e-05
Class 0:
Packet latency average = 160.067
	minimum = 14
	maximum = 412
Network latency average = 157.646
	minimum = 14
	maximum = 390
Slowest packet = 1177472
Flit latency average = 147.913
	minimum = 5
	maximum = 381
Slowest flit = 11774720
Fragmentation average = 1.35043
	minimum = 0
	maximum = 42
Injected packet rate average = 0.0350093
	minimum = 0.0318 (at node 565)
	maximum = 0.0384333 (at node 188)
Accepted packet rate average = 0.0350101
	minimum = 0.0318333 (at node 786)
	maximum = 0.0385333 (at node 276)
Injected flit rate average = 0.350094
	minimum = 0.318033 (at node 565)
	maximum = 0.384133 (at node 188)
Accepted flit rate average= 0.350108
	minimum = 0.318333 (at node 786)
	maximum = 0.385133 (at node 276)
Injected packet length average = 10
Accepted packet length average = 10.0002
Total in-flight flits = 56565 (56565 measured)
latency change    = 0.000525356
throughput change = 0.000475323
Draining all recorded packets ...
Draining remaining packets ...
Time taken is 60689 cycles
====== Overall Traffic Statistics ======
====== Traffic class 0 ======
Packet latency average = 160.131 (1 samples)
	minimum = 14 (1 samples)
	maximum = 412 (1 samples)
Network latency average = 157.71 (1 samples)
	minimum = 14 (1 samples)
	maximum = 390 (1 samples)
Flit latency average = 147.965 (1 samples)
	minimum = 5 (1 samples)
	maximum = 381 (1 samples)
Fragmentation average = 1.35135 (1 samples)
	minimum = 0 (1 samples)
	maximum = 42 (1 samples)
Injected packet rate average = 0.0350093 (1 samples)
	minimum = 0.0318 (1 samples)
	maximum = 0.0384333 (1 samples)
Accepted packet rate average = 0.0350101 (1 samples)
	minimum = 0.0318333 (1 samples)
	maximum = 0.0385333 (1 samples)
Injected flit rate average = 0.350094 (1 samples)
	minimum = 0.318033 (1 samples)
	maximum = 0.384133 (1 samples)
Accepted flit rate average = 0.350108 (1 samples)
	minimum = 0.318333 (1 samples)
	maximum = 0.385133 (1 samples)
Injected packet size average = 10 (1 samples)
Accepted packet size average = 10.0002 (1 samples)
Hops average = 4.00449 (1 samples)
Total run time 1057.83
BEGIN Configuration File: examples/dflyconfigugal
// $Id$

// Copyright (c) 2007-2015, Trustees of The Leland Stanford Junior University
// All rights reserved.
//
// Redistribution and use in source and binary forms, with or without
// modification, are permitted provided that the following conditions are met:
//
// Redistributions of source code must retain the above copyright notice, this
// list of conditions and the following disclaimer.
// Redistributions in binary form must reproduce the above copyright notice,
// this list of conditions and the following disclaimer in the documentation
// and/or other materials provided with the distribution.
//
// THIS SOFTWARE IS PROVIDED BY THE COPYRIGHT HOLDERS AND CONTRIBUTORS "AS IS"
// AND ANY EXPRESS OR IMPLIED WARRANTIES, INCLUDING, BUT NOT LIMITED TO, THE
// IMPLIED WARRANTIES OF MERCHANTABILITY AND FITNESS FOR A PARTICULAR PURPOSE
// ARE DISCLAIMED. IN NO EVENT SHALL THE COPYRIGHT OWNER OR CONTRIBUTORS BE
// LIABLE FOR ANY DIRECT, INDIRECT, INCIDENTAL, SPECIAL, EXEMPLARY, OR
// CONSEQUENTIAL DAMAGES (INCLUDING, BUT NOT LIMITED TO, PROCUREMENT OF
// SUBSTITUTE GOODS OR SERVICES; LOSS OF USE, DATA, OR PROFITS; OR BUSINESS
// INTERRUPTION) HOWEVER CAUSED AND ON ANY THEORY OF LIABILITY, WHETHER IN
// CONTRACT, STRICT LIABILITY, OR TORT (INCLUDING NEGLIGENCE OR OTHERWISE)
// ARISING IN ANY WAY OUT OF THE USE OF THIS SOFTWARE, EVEN IF ADVISED OF THE
// POSSIBILITY OF SUCH DAMAGE.

// Dragonfly
//




vc_buf_size = 256;


wait_for_tail_credit = 0;

//
// Router architecture
//
vc_allocator = separable_input_first; 
sw_allocator = separable_input_first;
alloc_iters  = 1;

credit_delay   = 2;
routing_delay  = 0;
vc_alloc_delay = 1;
sw_alloc_delay = 1;
st_final_delay = 1;

input_speedup     = 1;
output_speedup    = 1;
internal_speedup  = 2.0;


warmup_periods = 3;
sim_count          = 1;

sample_period  = 10000;  



routing_function = ugal;
num_vcs     = 3;

priority = none;
traffic       = uniform; 


packet_size = 10;
injection_rate_uses_flits=1;

topology = dragonflynew;

k  = 4;
n  = 1;

watch_out=-;

injection_rate =0.01;
stats_out = dflyugal_1.m;
injection_rate =0.05;
stats_out = dflyugal_5.m;
injection_rate =0.1;
stats_out = dflyugal_10.m;
injection_rate =0.15;
stats_out = dflyugal_15.m;
injection_rate =0.2;
stats_out = dflyugal_20.m;
injection_rate =0.25;
stats_out = dflyugal_25.m;
injection_rate =0.3;
stats_out = dflyugal_30.m;
injection_rate =0.35;
stats_out = dflyugal_35.m;
injection_rate =0.4;
stats_out = dflyugal_40.m;

END Configuration File: examples/dflyconfigugal
 Dragonfly 
 p = 4 n = 1
 each switch - total radix =  15
 # of switches = 264
 # of channels = 2904
 # of nodes ( size of network ) = 1056
 # of groups (_g) = 33
 # of routers per group (_a) = 8
Done links
Class 0:
Packet latency average = 165.077
	minimum = 14
	maximum = 402
Network latency average = 162.085
	minimum = 14
	maximum = 385
Slowest packet = 118868
Flit latency average = 152.251
	minimum = 5
	maximum = 376
Slowest flit = 1603650
Fragmentation average = 1.41241
	minimum = 0
	maximum = 52
Injected packet rate average = 0.0399949
	minimum = 0.0335 (at node 761)
	maximum = 0.0464 (at node 486)
Accepted packet rate average = 0.0393396
	minimum = 0.0331 (at node 895)
	maximum = 0.0459 (at node 915)
Injected flit rate average = 0.399762
	minimum = 0.335 (at node 761)
	maximum = 0.4635 (at node 486)
Accepted flit rate average= 0.393598
	minimum = 0.331 (at node 895)
	maximum = 0.459 (at node 915)
Injected packet length average = 9.99533
Accepted packet length average = 10.0051
Total in-flight flits = 67066 (0 measured)
latency change    = 1
throughput change = 1
Class 0:
Packet latency average = 165.359
	minimum = 14
	maximum = 415
Network latency average = 162.358
	minimum = 14
	maximum = 411
Slowest packet = 712413
Flit latency average = 152.52
	minimum = 5
	maximum = 402
Slowest flit = 7124130
Fragmentation average = 1.4188
	minimum = 0
	maximum = 52
Injected packet rate average = 0.0400402
	minimum = 0.0357 (at node 396)
	maximum = 0.0448 (at node 664)
Accepted packet rate average = 0.039711
	minimum = 0.03585 (at node 376)
	maximum = 0.04405 (at node 195)
Injected flit rate average = 0.40031
	minimum = 0.357 (at node 396)
	maximum = 0.448 (at node 664)
Accepted flit rate average= 0.397214
	minimum = 0.35855 (at node 376)
	maximum = 0.4405 (at node 195)
Injected packet length average = 9.99771
Accepted packet length average = 10.0026
Total in-flight flits = 67329 (0 measured)
latency change    = 0.00170799
throughput change = 0.00910377
Class 0:
Packet latency average = 165.971
	minimum = 14
	maximum = 401
Network latency average = 162.94
	minimum = 14
	maximum = 401
Slowest packet = 1067493
Flit latency average = 153.091
	minimum = 5
	maximum = 392
Slowest flit = 10674930
Fragmentation average = 1.43265
	minimum = 0
	maximum = 46
Injected packet rate average = 0.0401129
	minimum = 0.0344 (at node 33)
	maximum = 0.0488 (at node 611)
Accepted packet rate average = 0.0401116
	minimum = 0.0342 (at node 347)
	maximum = 0.0476 (at node 841)
Injected flit rate average = 0.401133
	minimum = 0.3449 (at node 33)
	maximum = 0.4875 (at node 611)
Accepted flit rate average= 0.401129
	minimum = 0.342 (at node 347)
	maximum = 0.4768 (at node 841)
Injected packet length average = 10.0001
Accepted packet length average = 10.0003
Total in-flight flits = 67324 (0 measured)
latency change    = 0.00368214
throughput change = 0.00976044
Warmed up ...Time used is 30000 cycles
Class 0:
Packet latency average = 165.431
	minimum = 14
	maximum = 422
Network latency average = 162.429
	minimum = 14
	maximum = 422
Slowest packet = 1273998
Flit latency average = 152.816
	minimum = 5
	maximum = 413
Slowest flit = 12739980
Fragmentation average = 1.42353
	minimum = 0
	maximum = 48
Injected packet rate average = 0.0399955
	minimum = 0.0341 (at node 127)
	maximum = 0.0456 (at node 40)
Accepted packet rate average = 0.0400152
	minimum = 0.0338 (at node 404)
	maximum = 0.0465 (at node 246)
Injected flit rate average = 0.399958
	minimum = 0.3409 (at node 127)
	maximum = 0.4555 (at node 40)
Accepted flit rate average= 0.400145
	minimum = 0.338 (at node 404)
	maximum = 0.465 (at node 246)
Injected packet length average = 10.0001
Accepted packet length average = 9.99982
Total in-flight flits = 65309 (65309 measured)
latency change    = 0.0032647
throughput change = 0.00245886
Class 0:
Packet latency average = 165.516
	minimum = 14
	maximum = 422
Network latency average = 162.517
	minimum = 14
	maximum = 422
Slowest packet = 1273998
Flit latency average = 152.789
	minimum = 5
	maximum = 413
Slowest flit = 12739980
Fragmentation average = 1.42616
	minimum = 0
	maximum = 48
Injected packet rate average = 0.0399826
[...]
Injected packet length average = 10.0002
Accepted packet length average = 9.99991
Total in-flight flits = 249539 (0 measured)
latency change    = 0.0143069
throughput change = 0.0166941
Warmed up ...Time used is 30000 cycles
Class 0:
Packet latency average = 317.953
	minimum = 14
	maximum = 1075
Network latency average = 299.78
	minimum = 14
	maximum = 1064
Slowest packet = 2981330
Flit latency average = 291.623
	minimum = 5
	maximum = 1055
Slowest flit = 29813300
Fragmentation average = 0.595073
	minimum = 0
	maximum = 62
Injected packet rate average = 0.0799988
	minimum = 0.0721 (at node 197)
	maximum = 0.089 (at node 161)
Accepted packet rate average = 0.0799991
	minimum = 0.0703 (at node 934)
	maximum = 0.0895 (at node 765)
Injected flit rate average = 0.799982
	minimum = 0.7218 (at node 197)
	maximum = 0.8891 (at node 161)
Accepted flit rate average= 0.800017
	minimum = 0.7035 (at node 934)
	maximum = 0.8953 (at node 765)
Injected packet length average = 9.99992
Accepted packet length average = 10.0003
Total in-flight flits = 249234 (249234 measured)
latency change    = 0.00944702
throughput change = 0.00136917
Class 0:
Packet latency average = 318.588
	minimum = 14
	maximum = 1179
Network latency average = 300.549
	minimum = 14
	maximum = 1164
Slowest packet = 3457941
Flit latency average = 291.782
	minimum = 5
	maximum = 1155
Slowest flit = 34579410
Fragmentation average = 0.598991
	minimum = 0
	maximum = 66
Injected packet rate average = 0.0799582
	minimum = 0.0735 (at node 986)
	maximum = 0.0861 (at node 231)
Accepted packet rate average = 0.0799326
	minimum = 0.0741 (at node 597)
	maximum = 0.08625 (at node 569)
Injected flit rate average = 0.799577
	minimum = 0.73505 (at node 986)
	maximum = 0.8609 (at node 231)
Accepted flit rate average= 0.799326
	minimum = 0.741 (at node 597)
	maximum = 0.8625 (at node 569)
Injected packet length average = 9.99994
Accepted packet length average = 10
Total in-flight flits = 254940 (254940 measured)
latency change    = 0.00199396
throughput change = 0.000863713
Class 0:
Packet latency average = 319.527
	minimum = 14
	maximum = 1179
Network latency average = 301.471
	minimum = 14
	maximum = 1164
Slowest packet = 3457941
Flit latency average = 292.499
	minimum = 5
	maximum = 1155
Slowest flit = 34579410
Fragmentation average = 0.59575
	minimum = 0
	maximum = 66
Injected packet rate average = 0.0799932
	minimum = 0.0743667 (at node 1045)
	maximum = 0.0847 (at node 231)
Accepted packet rate average = 0.0799934
	minimum = 0.0747667 (at node 514)
	maximum = 0.0847667 (at node 569)
Injected flit rate average = 0.79993
	minimum = 0.743433 (at node 1045)
	maximum = 0.846733 (at node 231)
Accepted flit rate average= 0.799939
	minimum = 0.747933 (at node 514)
	maximum = 0.8479 (at node 569)
Injected packet length average = 9.99997
Accepted packet length average = 10.0001
Total in-flight flits = 249337 (249337 measured)
latency change    = 0.00293861
throughput change = 0.000765467
Draining all recorded packets ...
Draining remaining packets ...
Time taken is 61411 cycles
====== Overall Traffic Statistics ======
====== Traffic class 0 ======
Packet latency average = 319.898 (1 samples)
	minimum = 14 (1 samples)
	maximum = 1179 (1 samples)
Network latency average = 301.83 (1 samples)
	minimum = 14 (1 samples)
	maximum = 1164 (1 samples)
Flit latency average = 292.555 (1 samples)
	minimum = 5 (1 samples)
	maximum = 1155 (1 samples)
Fragmentation average = 0.59537 (1 samples)
	minimum = 0 (1 samples)
	maximum = 66 (1 samples)
Injected packet rate average = 0.0799932 (1 samples)
	minimum = 0.0743667 (1 samples)
	maximum = 0.0847 (1 samples)
Accepted packet rate average = 0.0799934 (1 samples)
	minimum = 0.0747667 (1 samples)
	maximum = 0.0847667 (1 samples)
Injected flit rate average = 0.79993 (1 samples)
	minimum = 0.743433 (1 samples)
	maximum = 0.846733 (1 samples)
Accepted flit rate average = 0.799939 (1 samples)
	minimum = 0.747933 (1 samples)
	maximum = 0.8479 (1 samples)
Injected packet size average = 9.99997 (1 samples)
Accepted packet size average = 10.0001 (1 samples)
Hops average = 4.05315 (1 samples)
Total run time 2626.98
BEGIN Configuration File: examples/dflyconfigugal
// $Id$

// Copyright (c) 2007-2015, Trustees of The Leland Stanford Junior University
// All rights reserved.
//
// Redistribution and use in source and binary forms, with or without
// modification, are permitted provided that the following conditions are met:
//
// Redistributions of source code must retain the above copyright notice, this
// list of conditions and the following disclaimer.
// Redistributions in binary form must reproduce the above copyright notice,
// this list of conditions and the following disclaimer in the documentation
// and/or other materials provided with the distribution.
//
// THIS SOFTWARE IS PROVIDED BY THE COPYRIGHT HOLDERS AND CONTRIBUTORS "AS IS"
// AND ANY EXPRESS OR IMPLIED WARRANTIES, INCLUDING, BUT NOT LIMITED TO, THE
// IMPLIED WARRANTIES OF MERCHANTABILITY AND FITNESS FOR A PARTICULAR PURPOSE
// ARE DISCLAIMED. IN NO EVENT SHALL THE COPYRIGHT OWNER OR CONTRIBUTORS BE
// LIABLE FOR ANY DIRECT, INDIRECT, INCIDENTAL, SPECIAL, EXEMPLARY, OR
// CONSEQUENTIAL DAMAGES (INCLUDING, BUT NOT LIMITED TO, PROCUREMENT OF
// SUBSTITUTE GOODS OR SERVICES; LOSS OF USE, DATA, OR PROFITS; OR BUSINESS
// INTERRUPTION) HOWEVER CAUSED AND ON ANY THEORY OF LIABILITY, WHETHER IN
// CONTRACT, STRICT LIABILITY, OR TORT (INCLUDING NEGLIGENCE OR OTHERWISE)
// ARISING IN ANY WAY OUT OF THE USE OF THIS SOFTWARE, EVEN IF ADVISED OF THE
// POSSIBILITY OF SUCH DAMAGE.

// Dragonfly
//




vc_buf_size = 256;


wait_for_tail_credit = 0;

//
// Router architecture
//
vc_allocator = separable_input_first; 
sw_allocator = separable_input_first;
alloc_iters  = 1;

credit_delay   = 2;
routing_delay  = 0;
vc_alloc_delay = 1;
sw_alloc_delay = 1;
st_final_delay = 1;

input_speedup     = 1;
output_speedup    = 1;
internal_speedup  = 2.0;


warmup_periods = 3;
sim_count          = 1;

sample_period  = 10000;  



routing_function = ugal;
num_vcs     = 3;

priority = none;
traffic       = uniform; 


packet_size = 10;
injection_rate_uses_flits=1;

topology = dragonflynew;

k  = 4;
n  = 1;

watch_out=-;

injection_rate =0.01;
stats_out = dflyugal_1.m;
injection_rate =0.05;
stats_out = dflyugal_5.m;
injection_rate =0.1;
stats_out = dflyugal_10.m;
injection_rate =0.15;
stats_out = dflyugal_15.m;
injection_rate =0.2;
stats_out = dflyugal_20.m;
injection_rate =0.25;
stats_out = dflyugal_25.m;
injection_rate =0.3;
stats_out = dflyugal_30.m;
injection_rate =0.35;
stats_out = dflyugal_35.m;
injection_rate =0.4;
stats_out = dflyugal_40.m;
injection_rate =0.45;
stats_out = dflyugal_45.m;
injection_rate =0.5;
stats_out = dflyugal_50.m;
injection_rate =0.55;
stats_out = dflyugal_55.m;
injection_rate =0.6;
stats_out = dflyugal_60.m;
injection_rate =0.65;
stats_out = dflyugal_65.m;
injection_rate =0.7;
stats_out = dflyugal_70.m;
injection_rate =0.75;
stats_out = dflyugal_75.m;
injection_rate =0.8;
stats_out = dflyugal_80.m;
injection_rate =0.85;
stats_out = dflyugal_85.m;

END Configuration File: examples/dflyconfigugal
 Dragonfly 
 p = 4 n = 1
 each switch - total radix =  15
 # of switches = 264
 # of channels = 2904
 # of nodes ( size of network ) = 1056
 # of groups (_g) = 33
 # of routers per group (_a) = 8
Done links
Class 0:
Packet latency average = 400.802
	minimum = 14
	maximum = 2137
Network latency average = 375.764
	minimum = 14
	maximum = 2124
Slowest packet = 690618
Flit latency average = 366.51
	minimum = 5
	maximum = 2115
Slowest flit = 6906180
Fragmentation average = 0.493465
	minimum = 0
	maximum = 95
Injected packet rate average = 0.0847441
	minimum = 0.0762 (at node 353)
	maximum = 0.0929 (at node 516)
Accepted packet rate average = 0.0810047
	minimum = 0.0731 (at node 544)
	maximum = 0.09 (at node 135)
Injected flit rate average = 0.847062
	minimum = 0.7616 (at node 353)
	maximum = 0.9281 (at node 516)
Accepted flit rate average= 0.810459
	minimum = 0.731 (at node 544)
	maximum = 0.9001 (at node 135)
Injected packet length average = 9.99552
Accepted packet length average = 10.0051
Total in-flight flits = 390530 (0 measured)
latency change    = 1
throughput change = 1
Class 0:
Packet latency average = 445.472
	minimum = 14
	maximum = 3056
Network latency average = 416.424
	minimum = 14
	maximum = 2641
Slowest packet = 690618
Flit latency average = 407.162
	minimum = 5
	maximum = 2632
Slowest flit = 11517330
Fragmentation average = 0.440094
	minimum = 0
	maximum = 95
Injected packet rate average = 0.0848687
	minimum = 0.07925 (at node 449)
	maximum = 0.091 (at node 989)
Accepted packet rate average = 0.0828659
	minimum = 0.07625 (at node 544)
	maximum = 0.08915 (at node 135)
Injected flit rate average = 0.848494
	minimum = 0.79205 (at node 449)
	maximum = 0.9096 (at node 989)
Accepted flit rate average= 0.828855
	minimum = 0.76255 (at node 544)
	maximum = 0.89185 (at node 135)
Injected packet length average = 9.99773
Accepted packet length average = 10.0024
Total in-flight flits = 418840 (0 measured)
latency change    = 0.100275
throughput change = 0.0221943
Class 0:
Packet latency average = 523.191
	minimum = 14
	maximum = 4158
Network latency average = 480.517
	minimum = 14
	maximum = 2804
Slowest packet = 1627533
Flit latency average = 471.262
	minimum = 5
	maximum = 2795
Slowest flit = 17554620
Fragmentation average = 0.385791
	minimum = 0
	maximum = 69
Injected packet rate average = 0.0849619
	minimum = 0.0677 (at node 272)
	maximum = 0.0941 (at node 450)
Accepted packet rate average = 0.0848469
	minimum = 0.076 (at node 389)
	maximum = 0.0941 (at node 559)
Injected flit rate average = 0.849631
	minimum = 0.6777 (at node 272)
	maximum = 0.9409 (at node 450)
Accepted flit rate average= 0.848482
	minimum = 0.7594 (at node 389)
	maximum = 0.9416 (at node 559)
Injected packet length average = 10.0001
Accepted packet length average = 10.0002
Total in-flight flits = 430849 (0 measured)
latency change    = 0.148548
throughput change = 0.0231319
Warmed up ...Time used is 30000 cycles
Class 0:
Packet latency average = 549.175
	minimum = 14
	maximum = 5566
Network latency average = 486.165
	minimum = 14
	maximum = 2798
Slowest packet = 2690105
Flit latency average = 484.352
	minimum = 5
	maximum = 3071
Slowest flit = 24583650
Fragmentation average = 0.393034
	minimum = 0
	maximum = 53
Injected packet rate average = 0.0847675
	minimum = 0.0733 (at node 528)
	maximum = 0.0944 (at node 465)
Accepted packet rate average = 0.0846045
	minimum = 0.0761 (at node 808)
	maximum = 0.0936 (at node 219)
Injected flit rate average = 0.847662
	minimum = 0.7328 (at node 528)
	maximum = 0.9446 (at node 465)
Accepted flit rate average= 0.846051
	minimum = 0.7607 (at node 808)
	maximum = 0.9369 (at node 219)
Injected packet length average = 9.99984
Accepted packet length average = 10.0001
Total in-flight flits = 448003 (448003 measured)
latency change    = 0.0473139
throughput change = 0.00287376
Average latency for class 0 exceeded 500 cycles. Aborting simulation.
Too many sample periods needed to converge
Simulation unstable, ending ...
Total run time 1816
BEGIN Configuration File: examples/dflyconfigugal
// $Id$

// Copyright (c) 2007-2015, Trustees of The Leland Stanford Junior University
// All rights reserved.
//
// Redistribution and use in source and binary forms, with or without
// modification, are permitted provided that the following conditions are met:
//
// Redistributions of source code must retain the above copyright notice, this
// list of conditions and the following disclaimer.
// Redistributions in binary form must reproduce the above copyright notice,
// this list of conditions and the following disclaimer in the documentation
// and/or other materials provided with the distribution.
//
// THIS SOFTWARE IS PROVIDED BY THE COPYRIGHT HOLDERS AND CONTRIBUTORS "AS IS"
// AND ANY EXPRESS OR IMPLIED WARRANTIES, INCLUDING, BUT NOT LIMITED TO, THE
// IMPLIED WARRANTIES OF MERCHANTABILITY AND FITNESS FOR A PARTICULAR PURPOSE
// ARE DISCLAIMED. IN NO EVENT SHALL THE COPYRIGHT OWNER OR CONTRIBUTORS BE
// LIABLE FOR ANY DIRECT, INDIRECT, INCIDENTAL, SPECIAL, EXEMPLARY, OR
// CONSEQUENTIAL DAMAGES (INCLUDING, BUT NOT LIMITED TO, PROCUREMENT OF
// SUBSTITUTE GOODS OR SERVICES; LOSS OF USE, DATA, OR PROFITS; OR BUSINESS
// INTERRUPTION) HOWEVER CAUSED AND ON ANY THEORY OF LIABILITY, WHETHER IN
// CONTRACT, STRICT LIABILITY, OR TORT (INCLUDING NEGLIGENCE OR OTHERWISE)
// ARISING IN ANY WAY OUT OF THE USE OF THIS SOFTWARE, EVEN IF ADVISED OF THE
// POSSIBILITY OF SUCH DAMAGE.

// Dragonfly
//




vc_buf_size = 256;


wait_for_tail_credit = 0;

//
// Router architecture
//
vc_allocator = separable_input_first; 
sw_allocator = separable_input_first;
alloc_iters  = 1;

credit_delay   = 2;
routing_delay  = 0;
vc_alloc_delay = 1;
sw_alloc_delay = 1;
st_final_delay = 1;

input_speedup     = 1;
output_speedup    = 1;
internal_speedup  = 2.0;


warmup_periods = 3;
sim_count          = 1;

sample_period  = 10000;  



routing_function = ugal;
num_vcs     = 3;

priority = none;
traffic       = uniform; 


packet_size = 10;
injection_rate_uses_flits=1;

topology = dragonflynew;

k  = 4;
n  = 1;

watch_out=-;

injection_rate =0.01;
stats_out = dflyugal_1.m;
injection_rate =0.05;
stats_out = dflyugal_5.m;
injection_rate =0.1;
stats_out = dflyugal_10.m;
injection_rate =0.15;
stats_out = dflyugal_15.m;
injection_rate =0.2;
stats_out = dflyugal_20.m;
injection_rate =0.25;
stats_out = dflyugal_25.m;
injection_rate =0.3;
stats_out = dflyugal_30.m;
injection_rate =0.35;
stats_out = dflyugal_35.m;
injection_rate =0.4;
stats_out = dflyugal_40.m;
injection_rate =0.45;
stats_out = dflyugal_45.m;
injection_rate =0.5;
stats_out = dflyugal_50.m;
injection_rate =0.55;
stats_out = dflyugal_55.m;
injection_rate =0.6;
stats_out = dflyugal_60.m;
injection_rate =0.65;
stats_out = dflyugal_65.m;
injection_rate =0.7;
stats_out = dflyugal_70.m;
injection_rate =0.75;
stats_out = dflyugal_75.m;
injection_rate =0.8;
stats_out = dflyugal_80.m;
injection_rate =0.85;
stats_out = dflyugal_85.m;
injection_rate =0.9;
stats_out = dflyugal_90.m;

END Configuration File: examples/dflyconfigugal
 Dragonfly 
 p = 4 n = 1
 each switch - total radix =  15
 # of switches = 264
 # of channels = 2904
 # of nodes ( size of network ) = 1056
 # of groups (_g) = 33
 # of routers per group (_a) = 8
Done links
Class 0:
Packet latency average = 556.483
	minimum = 14
	maximum = 2950
Network latency average = 510.729
	minimum = 14
	maximum = 2650
Slowest packet = 448091
Flit latency average = 501.528
	minimum = 5
	maximum = 2641
Slowest flit = 5867140
Fragmentation average = 0.415848
	minimum = 0
	maximum = 69
Injected packet rate average = 0.0890124
	minimum = 0.0732 (at node 822)
	maximum = 0.0973 (at node 235)
Accepted packet rate average = 0.0828385
	minimum = 0.074 (at node 690)
	maximum = 0.0908 (at node 964)
Injected flit rate average = 0.889715
	minimum = 0.7316 (at node 822)
	maximum = 0.9728 (at node 235)
Accepted flit rate average= 0.828783
	minimum = 0.7404 (at node 690)
	maximum = 0.9085 (at node 964)
Injected packet length average = 9.9954
Accepted packet length average = 10.0048
Total in-flight flits = 647772 (0 measured)
latency change    = 1
throughput change = 1
Average latency for class 0 exceeded 500 cycles. Aborting simulation.
Too many sample periods needed to converge
Simulation unstable, ending ...
Total run time 329.282
BEGIN Configuration File: examples/dflyconfigugal
// $Id$

// Copyright (c) 2007-2015, Trustees of The Leland Stanford Junior University
// All rights reserved.
//
// Redistribution and use in source and binary forms, with or without
// modification, are permitted provided that the following conditions are met:
//
// Redistributions of source code must retain the above copyright notice, this
// list of conditions and the following disclaimer.
// Redistributions in binary form must reproduce the above copyright notice,
// this list of conditions and the following disclaimer in the documentation
// and/or other materials provided with the distribution.
//
// THIS SOFTWARE IS PROVIDED BY THE COPYRIGHT HOLDERS AND CONTRIBUTORS "AS IS"
// AND ANY EXPRESS OR IMPLIED WARRANTIES, INCLUDING, BUT NOT LIMITED TO, THE
// IMPLIED WARRANTIES OF MERCHANTABILITY AND FITNESS FOR A PARTICULAR PURPOSE
// ARE DISCLAIMED. IN NO EVENT SHALL THE COPYRIGHT OWNER OR CONTRIBUTORS BE
// LIABLE FOR ANY DIRECT, INDIRECT, INCIDENTAL, SPECIAL, EXEMPLARY, OR
// CONSEQUENTIAL DAMAGES (INCLUDING, BUT NOT LIMITED TO, PROCUREMENT OF
// SUBSTITUTE GOODS OR SERVICES; LOSS OF USE, DATA, OR PROFITS; OR BUSINESS
// INTERRUPTION) HOWEVER CAUSED AND ON ANY THEORY OF LIABILITY, WHETHER IN
// CONTRACT, STRICT LIABILITY, OR TORT (INCLUDING NEGLIGENCE OR OTHERWISE)
// ARISING IN ANY WAY OUT OF THE USE OF THIS SOFTWARE, EVEN IF ADVISED OF THE
// POSSIBILITY OF SUCH DAMAGE.

// Dragonfly
//




vc_buf_size = 256;


wait_for_tail_credit = 0;

//
// Router architecture
//
vc_allocator = separable_input_first; 
sw_allocator = separable_input_first;
alloc_iters  = 1;

credit_delay   = 2;
routing_delay  = 0;
vc_alloc_delay = 1;
sw_alloc_delay = 1;
st_final_delay = 1;

input_speedup     = 1;
output_speedup    = 1;
internal_speedup  = 2.0;


warmup_periods = 3;
sim_count          = 1;

sample_period  = 10000;  



routing_function = ugal;
num_vcs     = 3;

priority = none;
traffic       = uniform; 


packet_size = 10;
injection_rate_uses_flits=1;

topology = dragonflynew;

k  = 4;
n  = 1;

watch_out=-;

injection_rate =0.01;
stats_out = dflyugal_1.m;
injection_rate =0.05;
stats_out = dflyugal_5.m;
injection_rate =0.1;
stats_out = dflyugal_10.m;
injection_rate =0.15;
stats_out = dflyugal_15.m;
injection_rate =0.2;
stats_out = dflyugal_20.m;
injection_rate =0.25;
stats_out = dflyugal_25.m;
injection_rate =0.3;
stats_out = dflyugal_30.m;
injection_rate =0.35;
stats_out = dflyugal_35.m;
injection_rate =0.4;
stats_out = dflyugal_40.m;
injection_rate =0.45;
stats_out = dflyugal_45.m;
injection_rate =0.5;
stats_out = dflyugal_50.m;
injection_rate =0.55;
stats_out = dflyugal_55.m;
injection_rate =0.6;
stats_out = dflyugal_60.m;
injection_rate =0.65;
stats_out = dflyugal_65.m;
injection_rate =0.7;
stats_out = dflyugal_70.m;
injection_rate =0.75;
stats_out = dflyugal_75.m;
injection_rate =0.8;
stats_out = dflyugal_80.m;
injection_rate =0.85;
stats_out = dflyugal_85.m;
injection_rate =0.9;
stats_out = dflyugal_90.m;
injection_rate =0.95;
stats_out = dflyugal_95.m;

END Configuration File: examples/dflyconfigugal
 Dragonfly 
 p = 4 n = 1
 each switch - total radix =  15
 # of switches = 264
 # of channels = 2904
 # of nodes ( size of network ) = 1056
 # of groups (_g) = 33
 # of routers per group (_a) = 8
Done links
Class 0:
Packet latency average = 757.62
	minimum = 14
	maximum = 3488
Network latency average = 635.139
	minimum = 14
	maximum = 2890
Slowest packet = 364757
Flit latency average = 625.874
	minimum = 5
	maximum = 2881
Slowest flit = 5313340
Fragmentation average = 0.399315
	minimum = 0
	maximum = 60
Injected packet rate average = 0.0907669
	minimum = 0.0789 (at node 602)
	maximum = 0.0996 (at node 173)
Accepted packet rate average = 0.083191
	minimum = 0.0745 (at node 141)
	maximum = 0.0916 (at node 684)
Injected flit rate average = 0.907214
	minimum = 0.7884 (at node 602)
	maximum = 0.9957 (at node 173)
Accepted flit rate average= 0.832304
	minimum = 0.7451 (at node 582)
	maximum = 0.916 (at node 684)
Injected packet length average = 9.99499
Accepted packet length average = 10.0047
Total in-flight flits = 795857 (0 measured)
latency change    = 1
throughput change = 1
Average latency for class 0 exceeded 500 cycles. Aborting simulation.
Too many sample periods needed to converge
Simulation unstable, ending ...
Total run time 297.493
135.055
137.901
142.141
146.423
150.837
155.397
160.131
165.649
171.871
179.468
188.68
200.563
216.393
237.799
269.095
319.898
549.175
556.483
757.62
