BEGIN Configuration File: examples/fattree_config_0.30_1_bitcomp
// $Id: dragonflyconfig 3555 2011-05-16 23:37:55Z dub $

// Copyright (c) 2007-2015, Trustees of The Leland Stanford Junior University
// All rights reserved.
//
// Redistribution and use in source and binary forms, with or without
// modification, are permitted provided that the following conditions are met:
//
// Redistributions of source code must retain the above copyright notice, this
// list of conditions and the following disclaimer.
// Redistributions in binary form must reproduce the above copyright notice,
// this list of conditions and the following disclaimer in the documentation
// and/or other materials provided with the distribution.
//
// THIS SOFTWARE IS PROVIDED BY THE COPYRIGHT HOLDERS AND CONTRIBUTORS "AS IS"
// AND ANY EXPRESS OR IMPLIED WARRANTIES, INCLUDING, BUT NOT LIMITED TO, THE
// IMPLIED WARRANTIES OF MERCHANTABILITY AND FITNESS FOR A PARTICULAR PURPOSE
// ARE DISCLAIMED. IN NO EVENT SHALL THE COPYRIGHT OWNER OR CONTRIBUTORS BE
// LIABLE FOR ANY DIRECT, INDIRECT, INCIDENTAL, SPECIAL, EXEMPLARY, OR
// CONSEQUENTIAL DAMAGES (INCLUDING, BUT NOT LIMITED TO, PROCUREMENT OF
// SUBSTITUTE GOODS OR SERVICES; LOSS OF USE, DATA, OR PROFITS; OR BUSINESS
// INTERRUPTION) HOWEVER CAUSED AND ON ANY THEORY OF LIABILITY, WHETHER IN
// CONTRACT, STRICT LIABILITY, OR TORT (INCLUDING NEGLIGENCE OR OTHERWISE)
// ARISING IN ANY WAY OUT OF THE USE OF THIS SOFTWARE, EVEN IF ADVISED OF THE
// POSSIBILITY OF SUCH DAMAGE.


hold_switch_for_packet=1;

vc_buf_size = 16;


wait_for_tail_credit = 0;

//
// Router architecture
//
vc_allocator = separable_input_first; 
sw_allocator = separable_input_first;
alloc_iters  = 1;

credit_delay   = 2;
routing_delay  = 0;
vc_alloc_delay = 1;
sw_alloc_delay = 1;
st_final_delay = 1;

input_speedup     = 1;
output_speedup    = 1;
internal_speedup  = 1.0;


warmup_periods = 3;
sim_count          = 1;

sample_period  = 1000;  

routing_function = nca;
num_vcs     = 4;

priority = none;
traffic = bitcomp;


injection_rate = 0.30;
packet_size = 1;
injection_rate_uses_flits=1;

topology = fattree;

k  = 8;
n  = 4;
t = 1;

watch_file = watchfile.txt;
watch_out=-;
stats_out = examples/fattree_config_0.30_1_bitcomp.m;

END Configuration File: examples/fattree_config_0.30_1_bitcomp
Fat Tree
 k = 8 levels = 4
 each switch - total radix =  16
 # of switches = 2048
 # of channels = 24576
 # of nodes ( size of network ) = 4096
 tapering factor = 1
0 | node13 | Enqueuing flit 1 (packet 1) at time 0.
0 | node14 | Enqueuing flit 2 (packet 2) at time 0.
0 | node15 | Enqueuing flit 3 (packet 3) at time 0.
0 | node18 | Enqueuing flit 4 (packet 4) at time 0.
0 | node20 | Enqueuing flit 5 (packet 5) at time 0.
0 | node31 | Enqueuing flit 6 (packet 6) at time 0.
0 | node34 | Enqueuing flit 7 (packet 7) at time 0.
0 | node40 | Enqueuing flit 8 (packet 8) at time 0.
0 | node47 | Enqueuing flit 9 (packet 9) at time 0.
0 | node53 | Enqueuing flit 10 (packet 10) at time 0.
0 | traffic_manager | Finding output VC for flit 1:
0 | traffic_manager |   Selected output VC 0.
0 | node13 | Generating lookahead routing info for flit 1.
0 | node13 | Injecting flit 1 into subnet 0 at time 0 with priority 0.
0 | traffic_manager | Finding output VC for flit 2:
0 | traffic_manager |   Selected output VC 0.
0 | node14 | Generating lookahead routing info for flit 2.
0 | node14 | Injecting flit 2 into subnet 0 at time 0 with priority 0.
0 | traffic_manager | Finding output VC for flit 3:
0 | traffic_manager |   Selected output VC 0.
0 | node15 | Generating lookahead routing info for flit 3.
0 | node15 | Injecting flit 3 into subnet 0 at time 0 with priority 0.
0 | traffic_manager | Finding output VC for flit 4:
0 | traffic_manager |   Selected output VC 0.
0 | node18 | Generating lookahead routing info for flit 4.
0 | node18 | Injecting flit 4 into subnet 0 at time 0 with priority 0.
0 | traffic_manager | Finding output VC for flit 5:
0 | traffic_manager |   Selected output VC 0.
0 | node20 | Generating lookahead routing info for flit 5.
0 | node20 | Injecting flit 5 into subnet 0 at time 0 with priority 0.
0 | traffic_manager | Finding output VC for flit 6:
0 | traffic_manager |   Selected output VC 0.
0 | node31 | Generating lookahead routing info for flit 6.
0 | node31 | Injecting flit 6 into subnet 0 at time 0 with priority 0.
0 | traffic_manager | Finding output VC for flit 7:
0 | traffic_manager |   Selected output VC 0.
0 | node34 | Generating lookahead routing info for flit 7.
0 | node34 | Injecting flit 7 into subnet 0 at time 0 with priority 0.
0 | traffic_manager | Finding output VC for flit 8:
0 | traffic_manager |   Selected output VC 0.
0 | node40 | Generating lookahead routing info for flit 8.
0 | node40 | Injecting flit 8 into subnet 0 at time 0 with priority 0.
0 | traffic_manager | Finding output VC for flit 9:
0 | traffic_manager |   Selected output VC 0.
0 | node47 | Generating lookahead routing info for flit 9.
0 | node47 | Injecting flit 9 into subnet 0 at time 0 with priority 0.
0 | traffic_manager | Finding output VC for flit 10:
0 | traffic_manager |   Selected output VC 0.
0 | node53 | Generating lookahead routing info for flit 10.
0 | node53 | Injecting flit 10 into subnet 0 at time 0 with priority 0.
1 | network_0/network_0_fchan_ingress13 | Beginning channel traversal for flit 1 with delay 1.
1 | network_0/network_0_fchan_ingress14 | Beginning channel traversal for flit 2 with delay 1.
1 | network_0/network_0_fchan_ingress15 | Beginning channel traversal for flit 3 with delay 1.
1 | network_0/network_0_fchan_ingress18 | Beginning channel traversal for flit 4 with delay 1.
1 | network_0/network_0_fchan_ingress20 | Beginning channel traversal for flit 5 with delay 1.
1 | network_0/network_0_fchan_ingress31 | Beginning channel traversal for flit 6 with delay 1.
1 | network_0/network_0_fchan_ingress34 | Beginning channel traversal for flit 7 with delay 1.
1 | network_0/network_0_fchan_ingress40 | Beginning channel traversal for flit 8 with delay 1.
1 | network_0/network_0_fchan_ingress47 | Beginning channel traversal for flit 9 with delay 1.
1 | network_0/network_0_fchan_ingress53 | Beginning channel traversal for flit 10 with delay 1.
1 | network_0/network_0_fchan_ingress13 | Completed channel traversal for flit 1.
1 | network_0/network_0_fchan_ingress14 | Completed channel traversal for flit 2.
1 | network_0/network_0_fchan_ingress15 | Completed channel traversal for flit 3.
1 | network_0/network_0_fchan_ingress18 | Completed channel traversal for flit 4.
1 | network_0/network_0_fchan_ingress20 | Completed channel traversal for flit 5.
1 | network_0/network_0_fchan_ingress31 | Completed channel traversal for flit 6.
1 | network_0/network_0_fchan_ingress34 | Completed channel traversal for flit 7.
1 | network_0/network_0_fchan_ingress40 | Completed channel traversal for flit 8.
1 | network_0/network_0_fchan_ingress47 | Completed channel traversal for flit 9.
1 | network_0/network_0_fchan_ingress53 | Completed channel traversal for flit 10.
2 | network_0/router_level3_1 | Received flit 1 from channel at input 5.
2 | network_0/router_level3_1 | Received flit 2 from channel at input 6.
2 | network_0/router_level3_1 | Received flit 3 from channel at input 7.
2 | network_0/router_level3_2 | Received flit 4 from channel at input 2.
2 | network_0/router_level3_2 | Received flit 5 from channel at input 4.
2 | network_0/router_level3_3 | Received flit 6 from channel at input 7.
2 | network_0/router_level3_4 | Received flit 7 from channel at input 2.
2 | network_0/router_level3_5 | Received flit 8 from channel at input 0.
2 | network_0/router_level3_5 | Received flit 9 from channel at input 7.
2 | network_0/router_level3_6 | Received flit 10 from channel at input 5.
2 | network_0/router_level3_1 | Adding flit 1 to VC 0 at input 5 (state: idle, empty).
2 | network_0/router_level3_1 | Using precomputed lookahead routing information for VC 0 at input 5 (front: 1).
2 | network_0/router_level3_1/buf_5/vc_0 | Changing state from idle to vc_alloc.
2 | network_0/router_level3_1 | Adding flit 2 to VC 0 at input 6 (state: idle, empty).
2 | network_0/router_level3_1 | Using precomputed lookahead routing information for VC 0 at input 6 (front: 2).
2 | network_0/router_level3_1/buf_6/vc_0 | Changing state from idle to vc_alloc.
2 | network_0/router_level3_1 | Adding flit 3 to VC 0 at input 7 (state: idle, empty).
2 | network_0/router_level3_1 | Using precomputed lookahead routing information for VC 0 at input 7 (front: 3).
2 | network_0/router_level3_1/buf_7/vc_0 | Changing state from idle to vc_alloc.
2 | network_0/router_level3_1 | Beginning VC allocation for VC 0 at input 5 (front: 1).
2 | network_0/router_level3_1 |   Requesting VC 0 at output 9 (in_pri: 0, out_pri: 0).
2 | network_0/router_level3_1 |   Requesting VC 1 at output 9 (in_pri: 0, out_pri: 0).
2 | network_0/router_level3_1 |   Requesting VC 2 at output 9 (in_pri: 0, out_pri: 0).
2 | network_0/router_level3_1 |   Requesting VC 3 at output 9 (in_pri: 0, out_pri: 0).
2 | network_0/router_level3_1 | Beginning VC allocation for VC 0 at input 6 (front: 2).
2 | network_0/router_level3_1 |   Requesting VC 0 at output 14 (in_pri: 0, out_pri: 0).
2 | network_0/router_level3_1 |   Requesting VC 1 at output 14 (in_pri: 0, out_pri: 0).
2 | network_0/router_level3_1 |   Requesting VC 2 at output 14 (in_pri: 0, out_pri: 0).
2 | network_0/router_level3_1 |   Requesting VC 3 at output 14 (in_pri: 0, out_pri: 0).
2 | network_0/router_level3_1 | Beginning VC allocation for VC 0 at input 7 (front: 3).
2 | network_0/router_level3_1 |   Requesting VC 0 at output 13 (in_pri: 0, out_pri: 0).
2 | network_0/router_level3_1 |   Requesting VC 1 at output 13 (in_pri: 0, out_pri: 0).
2 | network_0/router_level3_1 |   Requesting VC 2 at output 13 (in_pri: 0, out_pri: 0).
2 | network_0/router_level3_1 |   Requesting VC 3 at output 13 (in_pri: 0, out_pri: 0).
2 | network_0/router_level3_1/vc_allocator | Input requests = [ 12 -> [ 44@0 45@0 46@0 47@0 ]  20 -> [ 36@0 37@0 38@0 39@0 ]  24 -> [ 56@0 57@0 58@0 59@0 ]  28 -> [ 52@0 53@0 54@0 55@0 ]  ], output requests = [ 36 -> [ 20@0 ]  37 -> [ 20@0 ]  38 -> [ 20@0 ]  39 -> [ 20@0 ]  44 -> [ 12@0 ]  45 -> [ 12@0 ]  46 -> [ 12@0 ]  47 -> [ 12@0 ]  52 -> [ 28@0 ]  53 -> [ 28@0 ]  54 -> [ 28@0 ]  55 -> [ 28@0 ]  56 -> [ 24@0 ]  57 -> [ 24@0 ]  58 -> [ 24@0 ]  59 -> [ 24@0 ]  ].
2 | network_0/router_level3_1/vc_allocator | Input grants = [ 12 -> 44  20 -> 36  24 -> 56  28 -> 52  ], output grants = [ 36 -> 20  44 -> 12  52 -> 28  56 -> 24  ].
2 | network_0/router_level3_1 | Assigning VC 0 at output 9 to VC 0 at input 5.
2 | network_0/router_level3_1 | Assigning VC 0 at output 14 to VC 0 at input 6.
2 | network_0/router_level3_1 | Assigning VC 0 at output 13 to VC 0 at input 7.
2 | network_0/router_level3_1 | Completed VC allocation for VC 0 at input 5 (front: 1).
2 | network_0/router_level3_1 |   Acquiring assigned VC 0 at output 9.
2 | network_0/router_level3_1/buf_5/vc_0 | Changing state from vc_alloc to active.
2 | network_0/router_level3_1 | Completed VC allocation for VC 0 at input 6 (front: 2).
2 | network_0/router_level3_1 |   Acquiring assigned VC 0 at output 14.
2 | network_0/router_level3_1/buf_6/vc_0 | Changing state from vc_alloc to active.
2 | network_0/router_level3_1 | Completed VC allocation for VC 0 at input 7 (front: 3).
2 | network_0/router_level3_1 |   Acquiring assigned VC 0 at output 13.
2 | network_0/router_level3_1/buf_7/vc_0 | Changing state from vc_alloc to active.
2 | network_0/router_level3_2 | Adding flit 4 to VC 0 at input 2 (state: idle, empty).
2 | network_0/router_level3_2 | Using precomputed lookahead routing information for VC 0 at input 2 (front: 4).
2 | network_0/router_level3_2/buf_2/vc_0 | Changing state from idle to vc_alloc.
2 | network_0/router_level3_2 | Adding flit 5 to VC 0 at input 4 (state: idle, empty).
2 | network_0/router_level3_2 | Using precomputed lookahead routing information for VC 0 at input 4 (front: 5).
2 | network_0/router_level3_2/buf_4/vc_0 | Changing state from idle to vc_alloc.
2 | network_0/router_level3_2 | Beginning VC allocation for VC 0 at input 2 (front: 4).
2 | network_0/router_level3_2 |   Requesting VC 0 at output 8 (in_pri: 0, out_pri: 0).
2 | network_0/router_level3_2 |   Requesting VC 1 at output 8 (in_pri: 0, out_pri: 0).
2 | network_0/router_level3_2 |   Requesting VC 2 at output 8 (in_pri: 0, out_pri: 0).
2 | network_0/router_level3_2 |   Requesting VC 3 at output 8 (in_pri: 0, out_pri: 0).
2 | network_0/router_level3_2 | Beginning VC allocation for VC 0 at input 4 (front: 5).
2 | network_0/router_level3_2 |   Requesting VC 0 at output 8 (in_pri: 0, out_pri: 0).
2 | network_0/router_level3_2 |   Requesting VC 1 at output 8 (in_pri: 0, out_pri: 0).
2 | network_0/router_level3_2 |   Requesting VC 2 at output 8 (in_pri: 0, out_pri: 0).
2 | network_0/router_level3_2 |   Requesting VC 3 at output 8 (in_pri: 0, out_pri: 0).
2 | network_0/router_level3_2/vc_allocator | Input requests = [ 8 -> [ 32@0 33@0 34@0 35@0 ]  16 -> [ 32@0 33@0 34@0 35@0 ]  ], output requests = [ 32 -> [ 8@0 16@0 ]  33 -> [ 8@0 16@0 ]  34 -> [ 8@0 16@0 ]  35 -> [ 8@0 16@0 ]  ].
2 | network_0/router_level3_2/vc_allocator | Input grants = [ 8 -> 32  ], output grants = [ 32 -> 8  ].
2 | network_0/router_level3_2 | Assigning VC 0 at output 8 to VC 0 at input 2.
2 | network_0/router_level3_2 | VC allocation failed for VC 0 at input 4.
2 | network_0/router_level3_2 | Completed VC allocation for VC 0 at input 2 (front: 4).
2 | network_0/router_level3_2 |   Acquiring assigned VC 0 at output 8.
2 | network_0/router_level3_2/buf_2/vc_0 | Changing state from vc_alloc to active.
2 | network_0/router_level3_2 | Completed VC allocation for VC 0 at input 4 (front: 5).
2 | network_0/router_level3_2 |   No output VC allocated.
2 | network_0/router_level3_3 | Adding flit 6 to VC 0 at input 7 (state: idle, empty).
2 | network_0/router_level3_3 | Using precomputed lookahead routing information for VC 0 at input 7 (front: 6).
2 | network_0/router_level3_3/buf_7/vc_0 | Changing state from idle to vc_alloc.
2 | network_0/router_level3_3 | Beginning VC allocation for VC 0 at input 7 (front: 6).
2 | network_0/router_level3_3 |   Requesting VC 0 at output 15 (in_pri: 0, out_pri: 0).
2 | network_0/router_level3_3 |   Requesting VC 1 at output 15 (in_pri: 0, out_pri: 0).
2 | network_0/router_level3_3 |   Requesting VC 2 at output 15 (in_pri: 0, out_pri: 0).
2 | network_0/router_level3_3 |   Requesting VC 3 at output 15 (in_pri: 0, out_pri: 0).
2 | network_0/router_level3_3/vc_allocator | Input requests = [ 28 -> [ 60@0 61@0 62@0 63@0 ]  ], output requests = [ 60 -> [ 28@0 ]  61 -> [ 28@0 ]  62 -> [ 28@0 ]  63 -> [ 28@0 ]  ].
2 | network_0/router_level3_3/vc_allocator | Input grants = [ 28 -> 60  ], output grants = [ 60 -> 28  ].
2 | network_0/router_level3_3 | Assigning VC 0 at output 15 to VC 0 at input 7.
2 | network_0/router_level3_3 | Completed VC allocation for VC 0 at input 7 (front: 6).
2 | network_0/router_level3_3 |   Acquiring assigned VC 0 at output 15.
2 | network_0/router_level3_3/buf_7/vc_0 | Changing state from vc_alloc to active.
2 | network_0/router_level3_4 | Adding flit 7 to VC 0 at input 2 (state: idle, empty).
2 | network_0/router_level3_4 | Using precomputed lookahead routing information for VC 0 at input 2 (front: 7).
2 | network_0/router_level3_4/buf_2/vc_0 | Changing state from idle to vc_alloc.
2 | network_0/router_level3_4 | Beginning VC allocation for VC 0 at input 2 (front: 7).
2 | network_0/router_level3_4 |   Requesting VC 0 at output 9 (in_pri: 0, out_pri: 0).
2 | network_0/router_level3_4 |   Requesting VC 1 at output 9 (in_pri: 0, out_pri: 0).
2 | network_0/router_level3_4 |   Requesting VC 2 at output 9 (in_pri: 0, out_pri: 0).
2 | network_0/router_level3_4 |   Requesting VC 3 at output 9 (in_pri: 0, out_pri: 0).
2 | network_0/router_level3_4/vc_allocator | Input requests = [ 8 -> [ 36@0 37@0 38@0 39@0 ]  ], output requests = [ 36 -> [ 8@0 ]  37 -> [ 8@0 ]  38 -> [ 8@0 ]  39 -> [ 8@0 ]  ].
2 | network_0/router_level3_4/vc_allocator | Input grants = [ 8 -> 36  ], output grants = [ 36 -> 8  ].
2 | network_0/router_level3_4 | Assigning VC 0 at output 9 to VC 0 at input 2.
2 | network_0/router_level3_4 | Completed VC allocation for VC 0 at input 2 (front: 7).
2 | network_0/router_level3_4 |   Acquiring assigned VC 0 at output 9.
2 | network_0/router_level3_4/buf_2/vc_0 | Changing state from vc_alloc to active.
2 | network_0/router_level3_5 | Adding flit 8 to VC 0 at input 0 (state: idle, empty).
2 | network_0/router_level3_5 | Using precomputed lookahead routing information for VC 0 at input 0 (front: 8).
2 | network_0/router_level3_5/buf_0/vc_0 | Changing state from idle to vc_alloc.
2 | network_0/router_level3_5 | Adding flit 9 to VC 0 at input 7 (state: idle, empty).
2 | network_0/router_level3_5 | Using precomputed lookahead routing information for VC 0 at input 7 (front: 9).
2 | network_0/router_level3_5/buf_7/vc_0 | Changing state from idle to vc_alloc.
2 | network_0/router_level3_5 | Beginning VC allocation for VC 0 at input 0 (front: 8).
2 | network_0/router_level3_5 |   Requesting VC 0 at output 15 (in_pri: 0, out_pri: 0).
2 | network_0/router_level3_5 |   Requesting VC 1 at output 15 (in_pri: 0, out_pri: 0).
2 | network_0/router_level3_5 |   Requesting VC 2 at output 15 (in_pri: 0, out_pri: 0).
2 | network_0/router_level3_5 |   Requesting VC 3 at output 15 (in_pri: 0, out_pri: 0).
2 | network_0/router_level3_5 | Beginning VC allocation for VC 0 at input 7 (front: 9).
2 | network_0/router_level3_5 |   Requesting VC 0 at output 12 (in_pri: 0, out_pri: 0).
2 | network_0/router_level3_5 |   Requesting VC 1 at output 12 (in_pri: 0, out_pri: 0).
2 | network_0/router_level3_5 |   Requesting VC 2 at output 12 (in_pri: 0, out_pri: 0).
2 | network_0/router_level3_5 |   Requesting VC 3 at output 12 (in_pri: 0, out_pri: 0).
2 | network_0/router_level3_5/vc_allocator | Input requests = [ 0 -> [ 60@0 61@0 62@0 63@0 ]  28 -> [ 48@0 49@0 50@0 51@0 ]  ], output requests = [ 48 -> [ 28@0 ]  49 -> [ 28@0 ]  50 -> [ 28@0 ]  51 -> [ 28@0 ]  60 -> [ 0@0 ]  61 -> [ 0@0 ]  62 -> [ 0@0 ]  63 -> [ 0@0 ]  ].
2 | network_0/router_level3_5/vc_allocator | Input grants = [ 0 -> 60  28 -> 48  ], output grants = [ 48 -> 28  60 -> 0  ].
2 | network_0/router_level3_5 | Assigning VC 0 at output 15 to VC 0 at input 0.
2 | network_0/router_level3_5 | Assigning VC 0 at output 12 to VC 0 at input 7.
2 | network_0/router_level3_5 | Completed VC allocation for VC 0 at input 0 (front: 8).
2 | network_0/router_level3_5 |   Acquiring assigned VC 0 at output 15.
2 | network_0/router_level3_5/buf_0/vc_0 | Changing state from vc_alloc to active.
2 | network_0/router_level3_5 | Completed VC allocation for VC 0 at input 7 (front: 9).
2 | network_0/router_level3_5 |   Acquiring assigned VC 0 at output 12.
2 | network_0/router_level3_5/buf_7/vc_0 | Changing state from vc_alloc to active.
2 | network_0/router_level3_6 | Adding flit 10 to VC 0 at input 5 (state: idle, empty).
2 | network_0/router_level3_6 | Using precomputed lookahead routing information for VC 0 at input 5 (front: 10).
2 | network_0/router_level3_6/buf_5/vc_0 | Changing state from idle to vc_alloc.
2 | network_0/router_level3_6 | Beginning VC allocation for VC 0 at input 5 (front: 10).
2 | network_0/router_level3_6 |   Requesting VC 0 at output 14 (in_pri: 0, out_pri: 0).
2 | network_0/router_level3_6 |   Requesting VC 1 at output 14 (in_pri: 0, out_pri: 0).
2 | network_0/router_level3_6 |   Requesting VC 2 at output 14 (in_pri: 0, out_pri: 0).
2 | network_0/router_level3_6 |   Requesting VC 3 at output 14 (in_pri: 0, out_pri: 0).
2 | network_0/router_level3_6/vc_allocator | Input requests = [ 20 -> [ 56@0 57@0 58@0 59@0 ]  24 -> [ 40@0 41@0 42@0 43@0 ]  28 -> [ 56@0 57@0 58@0 59@0 ]  ], output requests = [ 40 -> [ 24@0 ]  41 -> [ 24@0 ]  42 -> [ 24@0 ]  43 -> [ 24@0 ]  56 -> [ 20@0 28@0 ]  57 -> [ 20@0 28@0 ]  58 -> [ 20@0 28@0 ]  59 -> [ 20@0 28@0 ]  ].
2 | network_0/router_level3_6/vc_allocator | Input grants = [ 20 -> 56  24 -> 40  ], output grants = [ 40 -> 24  56 -> 20  ].
2 | network_0/router_level3_6 | Assigning VC 0 at output 14 to VC 0 at input 5.
2 | network_0/router_level3_6 | Completed VC allocation for VC 0 at input 5 (front: 10).
2 | network_0/router_level3_6 |   Acquiring assigned VC 0 at output 14.
2 | network_0/router_level3_6/buf_5/vc_0 | Changing state from vc_alloc to active.
3 | network_0/router_level3_1 | Beginning switch allocation for VC 0 at input 5 (front: 1).
3 | network_0/router_level3_1 |   Requesting output 9.0 (non-spec, pri: 0).
3 | network_0/router_level3_1 | Beginning switch allocation for VC 0 at input 6 (front: 2).
3 | network_0/router_level3_1 |   Requesting output 14.0 (non-spec, pri: 0).
3 | network_0/router_level3_1 | Beginning switch allocation for VC 0 at input 7 (front: 3).
3 | network_0/router_level3_1 |   Requesting output 13.0 (non-spec, pri: 0).
3 | network_0/router_level3_1/sw_allocator | Input requests = [ 3 -> [ 11@0 ]  5 -> [ 9@0 ]  6 -> [ 14@0 ]  7 -> [ 13@0 ]  ], output requests = [ 9 -> [ 5@0 ]  11 -> [ 3@0 ]  13 -> [ 7@0 ]  14 -> [ 6@0 ]  ].
3 | network_0/router_level3_1/sw_allocator | Input grants = [ 3 -> 11  5 -> 9  6 -> 14  7 -> 13  ], output grants = [ 9 -> 5  11 -> 3  13 -> 7  14 -> 6  ].
3 | network_0/router_level3_1 | Assigning output 9.0 to VC 0 at input 5.0.
3 | network_0/router_level3_1 | Assigning output 14.0 to VC 0 at input 6.0.
3 | network_0/router_level3_1 | Assigning output 13.0 to VC 0 at input 7.0.
3 | network_0/router_level3_1 | Completed switch allocation for VC 0 at input 5 (front: 1).
3 | network_0/router_level3_1 |   Scheduling switch connection from input 5.0 to output 9.0.
3 | network_0/router_level3_1 | Updating lookahead routing information for flit 1.
3 | network_0/router_level3_1 | Completed switch allocation for VC 0 at input 6 (front: 2).
3 | network_0/router_level3_1 |   Scheduling switch connection from input 6.0 to output 14.0.
3 | network_0/router_level3_1 | Updating lookahead routing information for flit 2.
3 | network_0/router_level3_1 | Completed switch allocation for VC 0 at input 7 (front: 3).
3 | network_0/router_level3_1 |   Scheduling switch connection from input 7.0 to output 13.0.
3 | network_0/router_level3_1 | Updating lookahead routing information for flit 3.
3 | network_0/router_level3_2 | Beginning VC allocation for VC 0 at input 4 (front: 5).
3 | network_0/router_level3_2 |   VC 0 at output 8 is in use by VC 0 at input 2 (front flit: 4).
3 | network_0/router_level3_2 |   Requesting VC 1 at output 8 (in_pri: 0, out_pri: 0).
3 | network_0/router_level3_2 |   Requesting VC 2 at output 8 (in_pri: 0, out_pri: 0).
3 | network_0/router_level3_2 |   Requesting VC 3 at output 8 (in_pri: 0, out_pri: 0).
3 | network_0/router_level3_2/vc_allocator | Input requests = [ 9 -> [ 44@0 45@0 46@0 47@0 ]  16 -> [ 33@0 34@0 35@0 ]  ], output requests = [ 33 -> [ 16@0 ]  34 -> [ 16@0 ]  35 -> [ 16@0 ]  44 -> [ 9@0 ]  45 -> [ 9@0 ]  46 -> [ 9@0 ]  47 -> [ 9@0 ]  ].
3 | network_0/router_level3_2/vc_allocator | Input grants = [ 9 -> 44  16 -> 33  ], output grants = [ 33 -> 16  44 -> 9  ].
3 | network_0/router_level3_2 | Assigning VC 1 at output 8 to VC 0 at input 4.
3 | network_0/router_level3_2 | Beginning switch allocation for VC 0 at input 2 (front: 4).
3 | network_0/router_level3_2 |   Requesting output 8.0 (non-spec, pri: 0).
3 | network_0/router_level3_2/sw_allocator | Input requests = [ 2 -> [ 8@0 ]  ], output requests = [ 8 -> [ 2@0 ]  ].
3 | network_0/router_level3_2/sw_allocator | Input grants = [ 2 -> 8  ], output grants = [ 8 -> 2  ].
3 | network_0/router_level3_2 | Assigning output 8.0 to VC 0 at input 2.0.
3 | network_0/router_level3_2 | Completed VC allocation for VC 0 at input 4 (front: 5).
3 | network_0/router_level3_2 |   Acquiring assigned VC 1 at output 8.
3 | network_0/router_level3_2/buf_4/vc_0 | Changing state from vc_alloc to active.
3 | network_0/router_level3_2 | Completed switch allocation for VC 0 at input 2 (front: 4).
3 | network_0/router_level3_2 |   Scheduling switch connection from input 2.0 to output 8.0.
3 | network_0/router_level3_2 | Updating lookahead routing information for flit 4.
3 | network_0/router_level3_3 | Beginning switch allocation for VC 0 at input 7 (front: 6).
3 | network_0/router_level3_3 |   Requesting output 15.0 (non-spec, pri: 0).
3 | network_0/router_level3_3/sw_allocator | Input requests = [ 7 -> [ 15@0 ]  ], output requests = [ 15 -> [ 7@0 ]  ].
3 | network_0/router_level3_3/sw_allocator | Input grants = [ 7 -> 15  ], output grants = [ 15 -> 7  ].
3 | network_0/router_level3_3 | Assigning output 15.0 to VC 0 at input 7.0.
3 | network_0/router_level3_3 | Completed switch allocation for VC 0 at input 7 (front: 6).
3 | network_0/router_level3_3 |   Scheduling switch connection from input 7.0 to output 15.0.
3 | network_0/router_level3_3 | Updating lookahead routing information for flit 6.
3 | network_0/router_level3_4 | Beginning switch allocation for VC 0 at input 2 (front: 7).
3 | network_0/router_level3_4 |   Requesting output 9.0 (non-spec, pri: 0).
3 | network_0/router_level3_4/sw_allocator | Input requests = [ 2 -> [ 9@0 ]  ], output requests = [ 9 -> [ 2@0 ]  ].
3 | network_0/router_level3_4/sw_allocator | Input grants = [ 2 -> 9  ], output grants = [ 9 -> 2  ].
3 | network_0/router_level3_4 | Assigning output 9.0 to VC 0 at input 2.0.
3 | network_0/router_level3_4 | Completed switch allocation for VC 0 at input 2 (front: 7).
3 | network_0/router_level3_4 |   Scheduling switch connection from input 2.0 to output 9.0.
3 | network_0/router_level3_4 | Updating lookahead routing information for flit 7.
3 | network_0/router_level3_5 | Beginning switch allocation for VC 0 at input 0 (front: 8).
3 | network_0/router_level3_5 |   Requesting output 15.0 (non-spec, pri: 0).
3 | network_0/router_level3_5 | Beginning switch allocation for VC 0 at input 7 (front: 9).
3 | network_0/router_level3_5 |   Requesting output 12.0 (non-spec, pri: 0).
3 | network_0/router_level3_5/sw_allocator | Input requests = [ 0 -> [ 15@0 ]  7 -> [ 12@0 ]  ], output requests = [ 12 -> [ 7@0 ]  15 -> [ 0@0 ]  ].
3 | network_0/router_level3_5/sw_allocator | Input grants = [ 0 -> 15  7 -> 12  ], output grants = [ 12 -> 7  15 -> 0  ].
3 | network_0/router_level3_5 | Assigning output 15.0 to VC 0 at input 0.0.
3 | network_0/router_level3_5 | Assigning output 12.0 to VC 0 at input 7.0.
3 | network_0/router_level3_5 | Completed switch allocation for VC 0 at input 0 (front: 8).
3 | network_0/router_level3_5 |   Scheduling switch connection from input 0.0 to output 15.0.
3 | network_0/router_level3_5 | Updating lookahead routing information for flit 8.
3 | network_0/router_level3_5 | Completed switch allocation for VC 0 at input 7 (front: 9).
3 | network_0/router_level3_5 |   Scheduling switch connection from input 7.0 to output 12.0.
3 | network_0/router_level3_5 | Updating lookahead routing information for flit 9.
3 | network_0/router_level3_6 | Beginning switch allocation for VC 0 at input 5 (front: 10).
3 | network_0/router_level3_6 |   Requesting output 14.0 (non-spec, pri: 0).
3 | network_0/router_level3_6/sw_allocator | Input requests = [ 5 -> [ 14@0 ]  6 -> [ 10@0 ]  ], output requests = [ 10 -> [ 6@0 ]  14 -> [ 5@0 ]  ].
3 | network_0/router_level3_6/sw_allocator | Input grants = [ 5 -> 14  6 -> 10  ], output grants = [ 10 -> 6  14 -> 5  ].
3 | network_0/router_level3_6 | Assigning output 14.0 to VC 0 at input 5.0.
3 | network_0/router_level3_6 | Completed switch allocation for VC 0 at input 5 (front: 10).
3 | network_0/router_level3_6 |   Scheduling switch connection from input 5.0 to output 14.0.
3 | network_0/router_level3_6 | Updating lookahead routing information for flit 10.
4 | network_0/router_level3_1 | Beginning crossbar traversal for flit 1 from input 5.0 to output 9.0.
4 | network_0/router_level3_1 | Beginning crossbar traversal for flit 2 from input 6.0 to output 14.0.
4 | network_0/router_level3_1 | Beginning crossbar traversal for flit 3 from input 7.0 to output 13.0.
4 | network_0/router_level3_1 | Completed crossbar traversal for flit 1 from input 5.0 to output 9.0.
4 | network_0/router_level3_1 | Buffering flit 1 at output 9.
4 | network_0/router_level3_1 | Completed crossbar traversal for flit 2 from input 6.0 to output 14.0.
4 | network_0/router_level3_1 | Buffering flit 2 at output 14.
4 | network_0/router_level3_1 | Completed crossbar traversal for flit 3 from input 7.0 to output 13.0.
4 | network_0/router_level3_1 | Buffering flit 3 at output 13.
4 | network_0/router_level3_2 | Beginning switch allocation for VC 0 at input 4 (front: 5).
4 | network_0/router_level3_2 |   Requesting output 8.0 (non-spec, pri: 0).
4 | network_0/router_level3_2/sw_allocator | Input requests = [ 2 -> [ 11@0 ]  4 -> [ 8@0 ]  ], output requests = [ 8 -> [ 4@0 ]  11 -> [ 2@0 ]  ].
4 | network_0/router_level3_2/sw_allocator | Input grants = [ 2 -> 11  4 -> 8  ], output grants = [ 8 -> 4  11 -> 2  ].
4 | network_0/router_level3_2 | Assigning output 8.0 to VC 0 at input 4.0.
4 | network_0/router_level3_2 | Beginning crossbar traversal for flit 4 from input 2.0 to output 8.0.
4 | network_0/router_level3_2 | Completed switch allocation for VC 0 at input 4 (front: 5).
4 | network_0/router_level3_2 |   Scheduling switch connection from input 4.0 to output 8.0.
4 | network_0/router_level3_2 | Updating lookahead routing information for flit 5.
4 | network_0/router_level3_2 | Completed crossbar traversal for flit 4 from input 2.0 to output 8.0.
4 | network_0/router_level3_2 | Buffering flit 4 at output 8.
4 | network_0/router_level3_3 | Beginning crossbar traversal for flit 6 from input 7.0 to output 15.0.
4 | network_0/router_level3_3 | Completed crossbar traversal for flit 6 from input 7.0 to output 15.0.
4 | network_0/router_level3_3 | Buffering flit 6 at output 15.
4 | network_0/router_level3_4 | Beginning crossbar traversal for flit 7 from input 2.0 to output 9.0.
4 | network_0/router_level3_4 | Completed crossbar traversal for flit 7 from input 2.0 to output 9.0.
4 | network_0/router_level3_4 | Buffering flit 7 at output 9.
4 | network_0/router_level3_5 | Beginning crossbar traversal for flit 8 from input 0.0 to output 15.0.
4 | network_0/router_level3_5 | Beginning crossbar traversal for flit 9 from input 7.0 to output 12.0.
4 | network_0/router_level3_5 | Completed crossbar traversal for flit 8 from input 0.0 to output 15.0.
4 | network_0/router_level3_5 | Buffering flit 8 at output 15.
4 | network_0/router_level3_5 | Completed crossbar traversal for flit 9 from input 7.0 to output 12.0.
4 | network_0/router_level3_5 | Buffering flit 9 at output 12.
4 | network_0/router_level3_6 | Beginning crossbar traversal for flit 10 from input 5.0 to output 14.0.
4 | network_0/router_level3_6 | Completed crossbar traversal for flit 10 from input 5.0 to output 14.0.
4 | network_0/router_level3_6 | Buffering flit 10 at output 14.
4 | network_0/router_level3_1 | Sending flit 1 to channel at output 9.
4 | network_0/router_level3_1 | Sending flit 3 to channel at output 13.
4 | network_0/router_level3_1 | Sending flit 2 to channel at output 14.
4 | network_0/router_level3_2 | Sending flit 4 to channel at output 8.
4 | network_0/router_level3_3 | Sending flit 6 to channel at output 15.
4 | network_0/router_level3_4 | Sending flit 7 to channel at output 9.
4 | network_0/router_level3_5 | Sending flit 9 to channel at output 12.
4 | network_0/router_level3_5 | Sending flit 8 to channel at output 15.
4 | network_0/router_level3_6 | Sending flit 10 to channel at output 14.
5 | network_0/network_0_fchan_20489 | Beginning channel traversal for flit 1 with delay 1.
5 | network_0/network_0_fchan_20493 | Beginning channel traversal for flit 3 with delay 1.
5 | network_0/network_0_fchan_20494 | Beginning channel traversal for flit 2 with delay 1.
5 | network_0/network_0_fchan_20496 | Beginning channel traversal for flit 4 with delay 1.
5 | network_0/network_0_fchan_20511 | Beginning channel traversal for flit 6 with delay 1.
5 | network_0/network_0_fchan_20513 | Beginning channel traversal for flit 7 with delay 1.
5 | network_0/network_0_fchan_20524 | Beginning channel traversal for flit 9 with delay 1.
5 | network_0/network_0_fchan_20527 | Beginning channel traversal for flit 8 with delay 1.
5 | network_0/network_0_fchan_20534 | Beginning channel traversal for flit 10 with delay 1.
5 | network_0/router_level3_2 | Beginning crossbar traversal for flit 5 from input 4.0 to output 8.0.
5 | network_0/router_level3_2 | Completed crossbar traversal for flit 5 from input 4.0 to output 8.0.
5 | network_0/router_level3_2 | Buffering flit 5 at output 8.
5 | network_0/network_0_fchan_20489 | Completed channel traversal for flit 1.
5 | network_0/network_0_fchan_20493 | Completed channel traversal for flit 3.
5 | network_0/network_0_fchan_20494 | Completed channel traversal for flit 2.
5 | network_0/network_0_fchan_20496 | Completed channel traversal for flit 4.
5 | network_0/network_0_fchan_20511 | Completed channel traversal for flit 6.
5 | network_0/network_0_fchan_20513 | Completed channel traversal for flit 7.
5 | network_0/network_0_fchan_20524 | Completed channel traversal for flit 9.
5 | network_0/network_0_fchan_20527 | Completed channel traversal for flit 8.
5 | network_0/network_0_fchan_20534 | Completed channel traversal for flit 10.
5 | network_0/router_level3_2 | Sending flit 5 to channel at output 8.
6 | network_0/network_0_fchan_20496 | Beginning channel traversal for flit 5 with delay 1.
6 | network_0/router_level2_0 | Received flit 4 from channel at input 2.
6 | network_0/router_level2_1 | Received flit 1 from channel at input 1.
6 | network_0/router_level2_1 | Received flit 7 from channel at input 4.
6 | network_0/router_level2_4 | Received flit 9 from channel at input 5.
6 | network_0/router_level2_5 | Received flit 3 from channel at input 1.
6 | network_0/router_level2_6 | Received flit 2 from channel at input 1.
6 | network_0/router_level2_6 | Received flit 10 from channel at input 6.
6 | network_0/router_level2_7 | Received flit 6 from channel at input 3.
6 | network_0/router_level2_7 | Received flit 8 from channel at input 5.
6 | network_0/router_level2_0 | Adding flit 4 to VC 0 at input 2 (state: idle, empty).
6 | network_0/router_level2_0 | Using precomputed lookahead routing information for VC 0 at input 2 (front: 4).
6 | network_0/router_level2_0/buf_2/vc_0 | Changing state from idle to vc_alloc.
6 | network_0/router_level2_0 | Beginning VC allocation for VC 0 at input 2 (front: 4).
6 | network_0/router_level2_0 |   Requesting VC 0 at output 15 (in_pri: 0, out_pri: 0).
6 | network_0/router_level2_0 |   Requesting VC 1 at output 15 (in_pri: 0, out_pri: 0).
6 | network_0/router_level2_0 |   Requesting VC 2 at output 15 (in_pri: 0, out_pri: 0).
6 | network_0/router_level2_0 |   Requesting VC 3 at output 15 (in_pri: 0, out_pri: 0).
6 | network_0/router_level2_0/vc_allocator | Input requests = [ 8 -> [ 60@0 61@0 62@0 63@0 ]  28 -> [ 48@0 49@0 50@0 51@0 ]  ], output requests = [ 48 -> [ 28@0 ]  49 -> [ 28@0 ]  50 -> [ 28@0 ]  51 -> [ 28@0 ]  60 -> [ 8@0 ]  61 -> [ 8@0 ]  62 -> [ 8@0 ]  63 -> [ 8@0 ]  ].
6 | network_0/router_level2_0/vc_allocator | Input grants = [ 8 -> 60  28 -> 48  ], output grants = [ 48 -> 28  60 -> 8  ].
6 | network_0/router_level2_0 | Assigning VC 0 at output 15 to VC 0 at input 2.
6 | network_0/router_level2_0 | Completed VC allocation for VC 0 at input 2 (front: 4).
6 | network_0/router_level2_0 |   Acquiring assigned VC 0 at output 15.
6 | network_0/router_level2_0/buf_2/vc_0 | Changing state from vc_alloc to active.
6 | network_0/router_level2_1 | Adding flit 1 to VC 0 at input 1 (state: idle, empty).
6 | network_0/router_level2_1 | Using precomputed lookahead routing information for VC 0 at input 1 (front: 1).
6 | network_0/router_level2_1/buf_1/vc_0 | Changing state from idle to vc_alloc.
6 | network_0/router_level2_1 | Adding flit 7 to VC 0 at input 4 (state: idle, empty).
6 | network_0/router_level2_1 | Using precomputed lookahead routing information for VC 0 at input 4 (front: 7).
6 | network_0/router_level2_1/buf_4/vc_0 | Changing state from idle to vc_alloc.
6 | network_0/router_level2_1 | Beginning VC allocation for VC 0 at input 1 (front: 1).
6 | network_0/router_level2_1 |   Requesting VC 0 at output 12 (in_pri: 0, out_pri: 0).
6 | network_0/router_level2_1 |   Requesting VC 1 at output 12 (in_pri: 0, out_pri: 0).
6 | network_0/router_level2_1 |   Requesting VC 2 at output 12 (in_pri: 0, out_pri: 0).
6 | network_0/router_level2_1 |   Requesting VC 3 at output 12 (in_pri: 0, out_pri: 0).
6 | network_0/router_level2_1 | Beginning VC allocation for VC 0 at input 4 (front: 7).
6 | network_0/router_level2_1 |   Requesting VC 0 at output 13 (in_pri: 0, out_pri: 0).
6 | network_0/router_level2_1 |   Requesting VC 1 at output 13 (in_pri: 0, out_pri: 0).
6 | network_0/router_level2_1 |   Requesting VC 2 at output 13 (in_pri: 0, out_pri: 0).
6 | network_0/router_level2_1 |   Requesting VC 3 at output 13 (in_pri: 0, out_pri: 0).
6 | network_0/router_level2_1/vc_allocator | Input requests = [ 4 -> [ 48@0 49@0 50@0 51@0 ]  16 -> [ 52@0 53@0 54@0 55@0 ]  ], output requests = [ 48 -> [ 4@0 ]  49 -> [ 4@0 ]  50 -> [ 4@0 ]  51 -> [ 4@0 ]  52 -> [ 16@0 ]  53 -> [ 16@0 ]  54 -> [ 16@0 ]  55 -> [ 16@0 ]  ].
6 | network_0/router_level2_1/vc_allocator | Input grants = [ 4 -> 48  16 -> 52  ], output grants = [ 48 -> 4  52 -> 16  ].
6 | network_0/router_level2_1 | Assigning VC 0 at output 12 to VC 0 at input 1.
6 | network_0/router_level2_1 | Assigning VC 0 at output 13 to VC 0 at input 4.
6 | network_0/router_level2_1 | Completed VC allocation for VC 0 at input 1 (front: 1).
6 | network_0/router_level2_1 |   Acquiring assigned VC 0 at output 12.
6 | network_0/router_level2_1/buf_1/vc_0 | Changing state from vc_alloc to active.
6 | network_0/router_level2_1 | Completed VC allocation for VC 0 at input 4 (front: 7).
6 | network_0/router_level2_1 |   Acquiring assigned VC 0 at output 13.
6 | network_0/router_level2_1/buf_4/vc_0 | Changing state from vc_alloc to active.
6 | network_0/router_level2_4 | Adding flit 9 to VC 0 at input 5 (state: idle, empty).
6 | network_0/router_level2_4 | Using precomputed lookahead routing information for VC 0 at input 5 (front: 9).
6 | network_0/router_level2_4/buf_5/vc_0 | Changing state from idle to vc_alloc.
6 | network_0/router_level2_4 | Beginning VC allocation for VC 0 at input 5 (front: 9).
6 | network_0/router_level2_4 |   Requesting VC 0 at output 8 (in_pri: 0, out_pri: 0).
6 | network_0/router_level2_4 |   Requesting VC 1 at output 8 (in_pri: 0, out_pri: 0).
6 | network_0/router_level2_4 |   Requesting VC 2 at output 8 (in_pri: 0, out_pri: 0).
6 | network_0/router_level2_4 |   Requesting VC 3 at output 8 (in_pri: 0, out_pri: 0).
6 | network_0/router_level2_4/vc_allocator | Input requests = [ 20 -> [ 32@0 33@0 34@0 35@0 ]  28 -> [ 44@0 45@0 46@0 47@0 ]  ], output requests = [ 32 -> [ 20@0 ]  33 -> [ 20@0 ]  34 -> [ 20@0 ]  35 -> [ 20@0 ]  44 -> [ 28@0 ]  45 -> [ 28@0 ]  46 -> [ 28@0 ]  47 -> [ 28@0 ]  ].
6 | network_0/router_level2_4/vc_allocator | Input grants = [ 20 -> 32  28 -> 44  ], output grants = [ 32 -> 20  44 -> 28  ].
6 | network_0/router_level2_4 | Assigning VC 0 at output 8 to VC 0 at input 5.
6 | network_0/router_level2_4 | Completed VC allocation for VC 0 at input 5 (front: 9).
6 | network_0/router_level2_4 |   Acquiring assigned VC 0 at output 8.
6 | network_0/router_level2_4/buf_5/vc_0 | Changing state from vc_alloc to active.
6 | network_0/router_level2_5 | Adding flit 3 to VC 0 at input 1 (state: idle, empty).
6 | network_0/router_level2_5 | Using precomputed lookahead routing information for VC 0 at input 1 (front: 3).
6 | network_0/router_level2_5/buf_1/vc_0 | Changing state from idle to vc_alloc.
6 | network_0/router_level2_5 | Beginning VC allocation for VC 0 at input 1 (front: 3).
6 | network_0/router_level2_5 |   Requesting VC 0 at output 15 (in_pri: 0, out_pri: 0).
6 | network_0/router_level2_5 |   Requesting VC 1 at output 15 (in_pri: 0, out_pri: 0).
6 | network_0/router_level2_5 |   Requesting VC 2 at output 15 (in_pri: 0, out_pri: 0).
6 | network_0/router_level2_5 |   Requesting VC 3 at output 15 (in_pri: 0, out_pri: 0).
6 | network_0/router_level2_5/vc_allocator | Input requests = [ 4 -> [ 60@0 61@0 62@0 63@0 ]  ], output requests = [ 60 -> [ 4@0 ]  61 -> [ 4@0 ]  62 -> [ 4@0 ]  63 -> [ 4@0 ]  ].
6 | network_0/router_level2_5/vc_allocator | Input grants = [ 4 -> 60  ], output grants = [ 60 -> 4  ].
6 | network_0/router_level2_5 | Assigning VC 0 at output 15 to VC 0 at input 1.
6 | network_0/router_level2_5 | Completed VC allocation for VC 0 at input 1 (front: 3).
6 | network_0/router_level2_5 |   Acquiring assigned VC 0 at output 15.
6 | network_0/router_level2_5/buf_1/vc_0 | Changing state from vc_alloc to active.
6 | network_0/router_level2_6 | Adding flit 2 to VC 0 at input 1 (state: idle, empty).
6 | network_0/router_level2_6 | Using precomputed lookahead routing information for VC 0 at input 1 (front: 2).
6 | network_0/router_level2_6/buf_1/vc_0 | Changing state from idle to vc_alloc.
6 | network_0/router_level2_6 | Adding flit 10 to VC 0 at input 6 (state: idle, empty).
6 | network_0/router_level2_6 | Using precomputed lookahead routing information for VC 0 at input 6 (front: 10).
6 | network_0/router_level2_6/buf_6/vc_0 | Changing state from idle to vc_alloc.
6 | network_0/router_level2_6 | Beginning VC allocation for VC 0 at input 1 (front: 2).
6 | network_0/router_level2_6 |   Requesting VC 0 at output 10 (in_pri: 0, out_pri: 0).
6 | network_0/router_level2_6 |   Requesting VC 1 at output 10 (in_pri: 0, out_pri: 0).
6 | network_0/router_level2_6 |   Requesting VC 2 at output 10 (in_pri: 0, out_pri: 0).
6 | network_0/router_level2_6 |   Requesting VC 3 at output 10 (in_pri: 0, out_pri: 0).
6 | network_0/router_level2_6 | Beginning VC allocation for VC 0 at input 6 (front: 10).
6 | network_0/router_level2_6 |   Requesting VC 0 at output 14 (in_pri: 0, out_pri: 0).
6 | network_0/router_level2_6 |   Requesting VC 1 at output 14 (in_pri: 0, out_pri: 0).
6 | network_0/router_level2_6 |   Requesting VC 2 at output 14 (in_pri: 0, out_pri: 0).
6 | network_0/router_level2_6 |   Requesting VC 3 at output 14 (in_pri: 0, out_pri: 0).
6 | network_0/router_level2_6/vc_allocator | Input requests = [ 4 -> [ 40@0 41@0 42@0 43@0 ]  24 -> [ 56@0 57@0 58@0 59@0 ]  ], output requests = [ 40 -> [ 4@0 ]  41 -> [ 4@0 ]  42 -> [ 4@0 ]  43 -> [ 4@0 ]  56 -> [ 24@0 ]  57 -> [ 24@0 ]  58 -> [ 24@0 ]  59 -> [ 24@0 ]  ].
6 | network_0/router_level2_6/vc_allocator | Input grants = [ 4 -> 40  24 -> 56  ], output grants = [ 40 -> 4  56 -> 24  ].
6 | network_0/router_level2_6 | Assigning VC 0 at output 10 to VC 0 at input 1.
6 | network_0/router_level2_6 | Assigning VC 0 at output 14 to VC 0 at input 6.
6 | network_0/router_level2_6 | Completed VC allocation for VC 0 at input 1 (front: 2).
6 | network_0/router_level2_6 |   Acquiring assigned VC 0 at output 10.
6 | network_0/router_level2_6/buf_1/vc_0 | Changing state from vc_alloc to active.
6 | network_0/router_level2_6 | Completed VC allocation for VC 0 at input 6 (front: 10).
6 | network_0/router_level2_6 |   Acquiring assigned VC 0 at output 14.
6 | network_0/router_level2_6/buf_6/vc_0 | Changing state from vc_alloc to active.
6 | network_0/router_level2_7 | Adding flit 6 to VC 0 at input 3 (state: idle, empty).
6 | network_0/router_level2_7 | Using precomputed lookahead routing information for VC 0 at input 3 (front: 6).
6 | network_0/router_level2_7/buf_3/vc_0 | Changing state from idle to vc_alloc.
6 | network_0/router_level2_7 | Adding flit 8 to VC 0 at input 5 (state: idle, empty).
6 | network_0/router_level2_7 | Using precomputed lookahead routing information for VC 0 at input 5 (front: 8).
6 | network_0/router_level2_7/buf_5/vc_0 | Changing state from idle to vc_alloc.
6 | network_0/router_level2_7 | Beginning VC allocation for VC 0 at input 3 (front: 6).
6 | network_0/router_level2_7 |   Requesting VC 0 at output 9 (in_pri: 0, out_pri: 0).
6 | network_0/router_level2_7 |   Requesting VC 1 at output 9 (in_pri: 0, out_pri: 0).
6 | network_0/router_level2_7 |   Requesting VC 2 at output 9 (in_pri: 0, out_pri: 0).
6 | network_0/router_level2_7 |   Requesting VC 3 at output 9 (in_pri: 0, out_pri: 0).
6 | network_0/router_level2_7 | Beginning VC allocation for VC 0 at input 5 (front: 8).
6 | network_0/router_level2_7 |   Requesting VC 0 at output 8 (in_pri: 0, out_pri: 0).
6 | network_0/router_level2_7 |   Requesting VC 1 at output 8 (in_pri: 0, out_pri: 0).
6 | network_0/router_level2_7 |   Requesting VC 2 at output 8 (in_pri: 0, out_pri: 0).
6 | network_0/router_level2_7 |   Requesting VC 3 at output 8 (in_pri: 0, out_pri: 0).
6 | network_0/router_level2_7/vc_allocator | Input requests = [ 12 -> [ 36@0 37@0 38@0 39@0 ]  20 -> [ 32@0 33@0 34@0 35@0 ]  ], output requests = [ 32 -> [ 20@0 ]  33 -> [ 20@0 ]  34 -> [ 20@0 ]  35 -> [ 20@0 ]  36 -> [ 12@0 ]  37 -> [ 12@0 ]  38 -> [ 12@0 ]  39 -> [ 12@0 ]  ].
6 | network_0/router_level2_7/vc_allocator | Input grants = [ 12 -> 36  20 -> 32  ], output grants = [ 32 -> 20  36 -> 12  ].
6 | network_0/router_level2_7 | Assigning VC 0 at output 9 to VC 0 at input 3.
6 | network_0/router_level2_7 | Assigning VC 0 at output 8 to VC 0 at input 5.
6 | network_0/router_level2_7 | Completed VC allocation for VC 0 at input 3 (front: 6).
6 | network_0/router_level2_7 |   Acquiring assigned VC 0 at output 9.
6 | network_0/router_level2_7/buf_3/vc_0 | Changing state from vc_alloc to active.
6 | network_0/router_level2_7 | Completed VC allocation for VC 0 at input 5 (front: 8).
6 | network_0/router_level2_7 |   Acquiring assigned VC 0 at output 8.
6 | network_0/router_level2_7/buf_5/vc_0 | Changing state from vc_alloc to active.
6 | network_0/network_0_fchan_20496 | Completed channel traversal for flit 5.
7 | network_0/router_level2_0 | Received flit 5 from channel at input 2.
7 | network_0/router_level2_0 | Adding flit 5 to VC 1 at input 2 (state: idle, empty).
7 | network_0/router_level2_0 | Using precomputed lookahead routing information for VC 1 at input 2 (front: 5).
7 | network_0/router_level2_0/buf_2/vc_1 | Changing state from idle to vc_alloc.
7 | network_0/router_level2_0 | Beginning VC allocation for VC 1 at input 2 (front: 5).
7 | network_0/router_level2_0 |   Requesting VC 0 at output 13 (in_pri: 0, out_pri: 0).
7 | network_0/router_level2_0 |   Requesting VC 1 at output 13 (in_pri: 0, out_pri: 0).
7 | network_0/router_level2_0 |   Requesting VC 2 at output 13 (in_pri: 0, out_pri: 0).
7 | network_0/router_level2_0 |   Requesting VC 3 at output 13 (in_pri: 0, out_pri: 0).
7 | network_0/router_level2_0/vc_allocator | Input requests = [ 0 -> [ 49@0 50@0 51@0 ]  9 -> [ 52@0 53@0 54@0 55@0 ]  20 -> [ 52@0 53@0 54@0 55@0 ]  29 -> [ 52@0 53@0 54@0 55@0 ]  ], output requests = [ 49 -> [ 0@0 ]  50 -> [ 0@0 ]  51 -> [ 0@0 ]  52 -> [ 9@0 20@0 29@0 ]  53 -> [ 9@0 20@0 29@0 ]  54 -> [ 9@0 20@0 29@0 ]  55 -> [ 9@0 20@0 29@0 ]  ].
7 | network_0/router_level2_0/vc_allocator | Input grants = [ 0 -> 49  9 -> 52  ], output grants = [ 49 -> 0  52 -> 9  ].
7 | network_0/router_level2_0 | Assigning VC 0 at output 13 to VC 1 at input 2.
7 | network_0/router_level2_0 | Beginning switch allocation for VC 0 at input 2 (front: 4).
7 | network_0/router_level2_0 |   Requesting output 15.0 (non-spec, pri: 0).
7 | network_0/router_level2_0/sw_allocator | Input requests = [ 2 -> [ 15@0 ]  7 -> [ 12@0 ]  ], output requests = [ 12 -> [ 7@0 ]  15 -> [ 2@0 ]  ].
7 | network_0/router_level2_0/sw_allocator | Input grants = [ 2 -> 15  7 -> 12  ], output grants = [ 12 -> 7  15 -> 2  ].
7 | network_0/router_level2_0 | Assigning output 15.0 to VC 0 at input 2.0.
7 | network_0/router_level2_0 | Completed VC allocation for VC 1 at input 2 (front: 5).
7 | network_0/router_level2_0 |   Acquiring assigned VC 0 at output 13.
7 | network_0/router_level2_0/buf_2/vc_1 | Changing state from vc_alloc to active.
7 | network_0/router_level2_0 | Completed switch allocation for VC 0 at input 2 (front: 4).
7 | network_0/router_level2_0 |   Scheduling switch connection from input 2.0 to output 15.0.
7 | network_0/router_level2_0 | Updating lookahead routing information for flit 4.
7 | network_0/router_level2_1 | Beginning switch allocation for VC 0 at input 1 (front: 1).
7 | network_0/router_level2_1 |   Requesting output 12.0 (non-spec, pri: 0).
7 | network_0/router_level2_1 | Beginning switch allocation for VC 0 at input 4 (front: 7).
7 | network_0/router_level2_1 |   Requesting output 13.0 (non-spec, pri: 0).
7 | network_0/router_level2_1/sw_allocator | Input requests = [ 1 -> [ 12@0 ]  4 -> [ 13@0 ]  ], output requests = [ 12 -> [ 1@0 ]  13 -> [ 4@0 ]  ].
7 | network_0/router_level2_1/sw_allocator | Input grants = [ 1 -> 12  4 -> 13  ], output grants = [ 12 -> 1  13 -> 4  ].
7 | network_0/router_level2_1 | Assigning output 12.0 to VC 0 at input 1.0.
7 | network_0/router_level2_1 | Assigning output 13.0 to VC 0 at input 4.0.
7 | network_0/router_level2_1 | Completed switch allocation for VC 0 at input 1 (front: 1).
7 | network_0/router_level2_1 |   Scheduling switch connection from input 1.0 to output 12.0.
7 | network_0/router_level2_1 | Updating lookahead routing information for flit 1.
7 | network_0/router_level2_1 | Completed switch allocation for VC 0 at input 4 (front: 7).
7 | network_0/router_level2_1 |   Scheduling switch connection from input 4.0 to output 13.0.
7 | network_0/router_level2_1 | Updating lookahead routing information for flit 7.
7 | network_0/router_level2_4 | Beginning switch allocation for VC 0 at input 5 (front: 9).
7 | network_0/router_level2_4 |   Requesting output 8.0 (non-spec, pri: 0).
7 | network_0/router_level2_4/sw_allocator | Input requests = [ 5 -> [ 8@0 ]  7 -> [ 11@0 ]  ], output requests = [ 8 -> [ 5@0 ]  11 -> [ 7@0 ]  ].
7 | network_0/router_level2_4/sw_allocator | Input grants = [ 5 -> 8  7 -> 11  ], output grants = [ 8 -> 5  11 -> 7  ].
7 | network_0/router_level2_4 | Assigning output 8.0 to VC 0 at input 5.0.
7 | network_0/router_level2_4 | Completed switch allocation for VC 0 at input 5 (front: 9).
7 | network_0/router_level2_4 |   Scheduling switch connection from input 5.0 to output 8.0.
7 | network_0/router_level2_4 | Updating lookahead routing information for flit 9.
7 | network_0/router_level2_5 | Beginning switch allocation for VC 0 at input 1 (front: 3).
7 | network_0/router_level2_5 |   Requesting output 15.0 (non-spec, pri: 0).
7 | network_0/router_level2_5/sw_allocator | Input requests = [ 1 -> [ 15@0 ]  ], output requests = [ 15 -> [ 1@0 ]  ].
7 | network_0/router_level2_5/sw_allocator | Input grants = [ 1 -> 15  ], output grants = [ 15 -> 1  ].
7 | network_0/router_level2_5 | Assigning output 15.0 to VC 0 at input 1.0.
7 | network_0/router_level2_5 | Completed switch allocation for VC 0 at input 1 (front: 3).
7 | network_0/router_level2_5 |   Scheduling switch connection from input 1.0 to output 15.0.
7 | network_0/router_level2_5 | Updating lookahead routing information for flit 3.
7 | network_0/router_level2_6 | Beginning switch allocation for VC 0 at input 1 (front: 2).
7 | network_0/router_level2_6 |   Requesting output 10.0 (non-spec, pri: 0).
7 | network_0/router_level2_6 | Beginning switch allocation for VC 0 at input 6 (front: 10).
7 | network_0/router_level2_6 |   Requesting output 14.0 (non-spec, pri: 0).
7 | network_0/router_level2_6/sw_allocator | Input requests = [ 1 -> [ 10@0 ]  6 -> [ 14@0 ]  ], output requests = [ 10 -> [ 1@0 ]  14 -> [ 6@0 ]  ].
7 | network_0/router_level2_6/sw_allocator | Input grants = [ 1 -> 10  6 -> 14  ], output grants = [ 10 -> 1  14 -> 6  ].
7 | network_0/router_level2_6 | Assigning output 10.0 to VC 0 at input 1.0.
7 | network_0/router_level2_6 | Assigning output 14.0 to VC 0 at input 6.0.
7 | network_0/router_level2_6 | Completed switch allocation for VC 0 at input 1 (front: 2).
7 | network_0/router_level2_6 |   Scheduling switch connection from input 1.0 to output 10.0.
7 | network_0/router_level2_6 | Updating lookahead routing information for flit 2.
7 | network_0/router_level2_6 | Completed switch allocation for VC 0 at input 6 (front: 10).
7 | network_0/router_level2_6 |   Scheduling switch connection from input 6.0 to output 14.0.
7 | network_0/router_level2_6 | Updating lookahead routing information for flit 10.
7 | network_0/router_level2_7 | Beginning switch allocation for VC 0 at input 3 (front: 6).
7 | network_0/router_level2_7 |   Requesting output 9.0 (non-spec, pri: 0).
7 | network_0/router_level2_7 | Beginning switch allocation for VC 0 at input 5 (front: 8).
7 | network_0/router_level2_7 |   Requesting output 8.0 (non-spec, pri: 0).
7 | network_0/router_level2_7/sw_allocator | Input requests = [ 3 -> [ 9@0 ]  5 -> [ 8@0 ]  ], output requests = [ 8 -> [ 5@0 ]  9 -> [ 3@0 ]  ].
7 | network_0/router_level2_7/sw_allocator | Input grants = [ 3 -> 9  5 -> 8  ], output grants = [ 8 -> 5  9 -> 3  ].
7 | network_0/router_level2_7 | Assigning output 9.0 to VC 0 at input 3.0.
7 | network_0/router_level2_7 | Assigning output 8.0 to VC 0 at input 5.0.
7 | network_0/router_level2_7 | Completed switch allocation for VC 0 at input 3 (front: 6).
7 | network_0/router_level2_7 |   Scheduling switch connection from input 3.0 to output 9.0.
7 | network_0/router_level2_7 | Updating lookahead routing information for flit 6.
7 | network_0/router_level2_7 | Completed switch allocation for VC 0 at input 5 (front: 8).
7 | network_0/router_level2_7 |   Scheduling switch connection from input 5.0 to output 8.0.
7 | network_0/router_level2_7 | Updating lookahead routing information for flit 8.
8 | network_0/router_level2_0 | Beginning switch allocation for VC 1 at input 2 (front: 5).
8 | network_0/router_level2_0 |   Requesting output 13.0 (non-spec, pri: 0).
8 | network_0/router_level2_0/sw_allocator | Input requests = [ 0 -> [ 12@0 ]  2 -> [ 13@0 ]  ], output requests = [ 12 -> [ 0@0 ]  13 -> [ 2@0 ]  ].
8 | network_0/router_level2_0/sw_allocator | Input grants = [ 0 -> 12  2 -> 13  ], output grants = [ 12 -> 0  13 -> 2  ].
8 | network_0/router_level2_0 | Assigning output 13.0 to VC 1 at input 2.0.
8 | network_0/router_level2_0 | Beginning crossbar traversal for flit 4 from input 2.0 to output 15.0.
8 | network_0/router_level2_0 | Completed switch allocation for VC 1 at input 2 (front: 5).
8 | network_0/router_level2_0 |   Scheduling switch connection from input 2.0 to output 13.0.
8 | network_0/router_level2_0 | Updating lookahead routing information for flit 5.
8 | network_0/router_level2_0 | Completed crossbar traversal for flit 4 from input 2.0 to output 15.0.
8 | network_0/router_level2_0 | Buffering flit 4 at output 15.
8 | network_0/router_level2_1 | Beginning crossbar traversal for flit 1 from input 1.0 to output 12.0.
8 | network_0/router_level2_1 | Beginning crossbar traversal for flit 7 from input 4.0 to output 13.0.
8 | network_0/router_level2_1 | Completed crossbar traversal for flit 1 from input 1.0 to output 12.0.
8 | network_0/router_level2_1 | Buffering flit 1 at output 12.
8 | network_0/router_level2_1 | Completed crossbar traversal for flit 7 from input 4.0 to output 13.0.
8 | network_0/router_level2_1 | Buffering flit 7 at output 13.
8 | network_0/router_level2_4 | Beginning crossbar traversal for flit 9 from input 5.0 to output 8.0.
8 | network_0/router_level2_4 | Completed crossbar traversal for flit 9 from input 5.0 to output 8.0.
8 | network_0/router_level2_4 | Buffering flit 9 at output 8.
8 | network_0/router_level2_5 | Beginning crossbar traversal for flit 3 from input 1.0 to output 15.0.
8 | network_0/router_level2_5 | Completed crossbar traversal for flit 3 from input 1.0 to output 15.0.
8 | network_0/router_level2_5 | Buffering flit 3 at output 15.
8 | network_0/router_level2_6 | Beginning crossbar traversal for flit 2 from input 1.0 to output 10.0.
8 | network_0/router_level2_6 | Beginning crossbar traversal for flit 10 from input 6.0 to output 14.0.
8 | network_0/router_level2_6 | Completed crossbar traversal for flit 2 from input 1.0 to output 10.0.
8 | network_0/router_level2_6 | Buffering flit 2 at output 10.
8 | network_0/router_level2_6 | Completed crossbar traversal for flit 10 from input 6.0 to output 14.0.
8 | network_0/router_level2_6 | Buffering flit 10 at output 14.
8 | network_0/router_level2_7 | Beginning crossbar traversal for flit 6 from input 3.0 to output 9.0.
8 | network_0/router_level2_7 | Beginning crossbar traversal for flit 8 from input 5.0 to output 8.0.
8 | network_0/router_level2_7 | Completed crossbar traversal for flit 6 from input 3.0 to output 9.0.
8 | network_0/router_level2_7 | Buffering flit 6 at output 9.
8 | network_0/router_level2_7 | Completed crossbar traversal for flit 8 from input 5.0 to output 8.0.
8 | network_0/router_level2_7 | Buffering flit 8 at output 8.
8 | network_0/router_level2_0 | Sending flit 4 to channel at output 15.
8 | network_0/router_level2_1 | Sending flit 1 to channel at output 12.
8 | network_0/router_level2_1 | Sending flit 7 to channel at output 13.
8 | network_0/router_level2_4 | Sending flit 9 to channel at output 8.
8 | network_0/router_level2_5 | Sending flit 3 to channel at output 15.
8 | network_0/router_level2_6 | Sending flit 2 to channel at output 10.
8 | network_0/router_level2_6 | Sending flit 10 to channel at output 14.
8 | network_0/router_level2_7 | Sending flit 8 to channel at output 8.
8 | network_0/router_level2_7 | Sending flit 6 to channel at output 9.
9 | network_0/network_0_fchan_12295 | Beginning channel traversal for flit 4 with delay 1.
9 | network_0/network_0_fchan_12300 | Beginning channel traversal for flit 1 with delay 1.
9 | network_0/network_0_fchan_12301 | Beginning channel traversal for flit 7 with delay 1.
9 | network_0/network_0_fchan_12320 | Beginning channel traversal for flit 9 with delay 1.
9 | network_0/network_0_fchan_12335 | Beginning channel traversal for flit 3 with delay 1.
9 | network_0/network_0_fchan_12338 | Beginning channel traversal for flit 2 with delay 1.
9 | network_0/network_0_fchan_12342 | Beginning channel traversal for flit 10 with delay 1.
9 | network_0/network_0_fchan_12344 | Beginning channel traversal for flit 8 with delay 1.
9 | network_0/network_0_fchan_12345 | Beginning channel traversal for flit 6 with delay 1.
9 | network_0/router_level2_0 | Beginning crossbar traversal for flit 5 from input 2.0 to output 13.0.
9 | network_0/router_level2_0 | Completed crossbar traversal for flit 5 from input 2.0 to output 13.0.
9 | network_0/router_level2_0 | Buffering flit 5 at output 13.
9 | network_0/network_0_fchan_12295 | Completed channel traversal for flit 4.
9 | network_0/network_0_fchan_12300 | Completed channel traversal for flit 1.
9 | network_0/network_0_fchan_12301 | Completed channel traversal for flit 7.
9 | network_0/network_0_fchan_12320 | Completed channel traversal for flit 9.
9 | network_0/network_0_fchan_12335 | Completed channel traversal for flit 3.
9 | network_0/network_0_fchan_12338 | Completed channel traversal for flit 2.
9 | network_0/network_0_fchan_12342 | Completed channel traversal for flit 10.
9 | network_0/network_0_fchan_12344 | Completed channel traversal for flit 8.
9 | network_0/network_0_fchan_12345 | Completed channel traversal for flit 6.
9 | network_0/router_level2_0 | Sending flit 5 to channel at output 13.
10 | network_0/network_0_fchan_12293 | Beginning channel traversal for flit 5 with delay 1.
10 | network_0/router_level1_4 | Received flit 9 from channel at input 0.
10 | network_0/router_level1_7 | Received flit 8 from channel at input 0.
10 | network_0/router_level1_15 | Received flit 6 from channel at input 0.
10 | network_0/router_level1_22 | Received flit 2 from channel at input 0.
10 | network_0/router_level1_33 | Received flit 1 from channel at input 0.
10 | network_0/router_level1_41 | Received flit 7 from channel at input 0.
10 | network_0/router_level1_54 | Received flit 10 from channel at input 0.
10 | network_0/router_level1_56 | Received flit 4 from channel at input 0.
10 | network_0/router_level1_61 | Received flit 3 from channel at input 0.
10 | network_0/router_level1_4 | Adding flit 9 to VC 0 at input 0 (state: idle, empty).
10 | network_0/router_level1_4 | Using precomputed lookahead routing information for VC 0 at input 0 (front: 9).
10 | network_0/router_level1_4/buf_0/vc_0 | Changing state from idle to vc_alloc.
10 | network_0/router_level1_4 | Beginning VC allocation for VC 0 at input 0 (front: 9).
10 | network_0/router_level1_4 |   Requesting VC 0 at output 14 (in_pri: 0, out_pri: 0).
10 | network_0/router_level1_4 |   Requesting VC 1 at output 14 (in_pri: 0, out_pri: 0).
10 | network_0/router_level1_4 |   Requesting VC 2 at output 14 (in_pri: 0, out_pri: 0).
10 | network_0/router_level1_4 |   Requesting VC 3 at output 14 (in_pri: 0, out_pri: 0).
10 | network_0/router_level1_4/vc_allocator | Input requests = [ 0 -> [ 56@0 57@0 58@0 59@0 ]  16 -> [ 32@0 33@0 34@0 35@0 ]  ], output requests = [ 32 -> [ 16@0 ]  33 -> [ 16@0 ]  34 -> [ 16@0 ]  35 -> [ 16@0 ]  56 -> [ 0@0 ]  57 -> [ 0@0 ]  58 -> [ 0@0 ]  59 -> [ 0@0 ]  ].
10 | network_0/router_level1_4/vc_allocator | Input grants = [ 0 -> 56  16 -> 32  ], output grants = [ 32 -> 16  56 -> 0  ].
10 | network_0/router_level1_4 | Assigning VC 0 at output 14 to VC 0 at input 0.
10 | network_0/router_level1_4 | Completed VC allocation for VC 0 at input 0 (front: 9).
10 | network_0/router_level1_4 |   Acquiring assigned VC 0 at output 14.
10 | network_0/router_level1_4/buf_0/vc_0 | Changing state from vc_alloc to active.
10 | network_0/router_level1_7 | Adding flit 8 to VC 0 at input 0 (state: idle, empty).
10 | network_0/router_level1_7 | Using precomputed lookahead routing information for VC 0 at input 0 (front: 8).
10 | network_0/router_level1_7/buf_0/vc_0 | Changing state from idle to vc_alloc.
10 | network_0/router_level1_7 | Beginning VC allocation for VC 0 at input 0 (front: 8).
10 | network_0/router_level1_7 |   Requesting VC 0 at output 10 (in_pri: 0, out_pri: 0).
10 | network_0/router_level1_7 |   Requesting VC 1 at output 10 (in_pri: 0, out_pri: 0).
10 | network_0/router_level1_7 |   Requesting VC 2 at output 10 (in_pri: 0, out_pri: 0).
10 | network_0/router_level1_7 |   Requesting VC 3 at output 10 (in_pri: 0, out_pri: 0).
10 | network_0/router_level1_7/vc_allocator | Input requests = [ 0 -> [ 40@0 41@0 42@0 43@0 ]  12 -> [ 32@0 33@0 34@0 35@0 ]  16 -> [ 56@0 57@0 58@0 59@0 ]  20 -> [ 52@0 53@0 54@0 55@0 ]  ], output requests = [ 32 -> [ 12@0 ]  33 -> [ 12@0 ]  34 -> [ 12@0 ]  35 -> [ 12@0 ]  40 -> [ 0@0 ]  41 -> [ 0@0 ]  42 -> [ 0@0 ]  43 -> [ 0@0 ]  52 -> [ 20@0 ]  53 -> [ 20@0 ]  54 -> [ 20@0 ]  55 -> [ 20@0 ]  56 -> [ 16@0 ]  57 -> [ 16@0 ]  58 -> [ 16@0 ]  59 -> [ 16@0 ]  ].
10 | network_0/router_level1_7/vc_allocator | Input grants = [ 0 -> 40  12 -> 32  16 -> 56  20 -> 52  ], output grants = [ 32 -> 12  40 -> 0  52 -> 20  56 -> 16  ].
10 | network_0/router_level1_7 | Assigning VC 0 at output 10 to VC 0 at input 0.
10 | network_0/router_level1_7 | Completed VC allocation for VC 0 at input 0 (front: 8).
10 | network_0/router_level1_7 |   Acquiring assigned VC 0 at output 10.
10 | network_0/router_level1_7/buf_0/vc_0 | Changing state from vc_alloc to active.
10 | network_0/router_level1_15 | Adding flit 6 to VC 0 at input 0 (state: idle, empty).
10 | network_0/router_level1_15 | Using precomputed lookahead routing information for VC 0 at input 0 (front: 6).
10 | network_0/router_level1_15/buf_0/vc_0 | Changing state from idle to vc_alloc.
10 | network_0/router_level1_15 | Beginning VC allocation for VC 0 at input 0 (front: 6).
10 | network_0/router_level1_15 |   Requesting VC 0 at output 12 (in_pri: 0, out_pri: 0).
10 | network_0/router_level1_15 |   Requesting VC 1 at output 12 (in_pri: 0, out_pri: 0).
10 | network_0/router_level1_15 |   Requesting VC 2 at output 12 (in_pri: 0, out_pri: 0).
10 | network_0/router_level1_15 |   Requesting VC 3 at output 12 (in_pri: 0, out_pri: 0).
10 | network_0/router_level1_15/vc_allocator | Input requests = [ 0 -> [ 48@0 49@0 50@0 51@0 ]  4 -> [ 44@0 45@0 46@0 47@0 ]  ], output requests = [ 44 -> [ 4@0 ]  45 -> [ 4@0 ]  46 -> [ 4@0 ]  47 -> [ 4@0 ]  48 -> [ 0@0 ]  49 -> [ 0@0 ]  50 -> [ 0@0 ]  51 -> [ 0@0 ]  ].
10 | network_0/router_level1_15/vc_allocator | Input grants = [ 0 -> 48  4 -> 44  ], output grants = [ 44 -> 4  48 -> 0  ].
10 | network_0/router_level1_15 | Assigning VC 0 at output 12 to VC 0 at input 0.
10 | network_0/router_level1_15 | Completed VC allocation for VC 0 at input 0 (front: 6).
10 | network_0/router_level1_15 |   Acquiring assigned VC 0 at output 12.
10 | network_0/router_level1_15/buf_0/vc_0 | Changing state from vc_alloc to active.
10 | network_0/router_level1_22 | Adding flit 2 to VC 0 at input 0 (state: idle, empty).
10 | network_0/router_level1_22 | Using precomputed lookahead routing information for VC 0 at input 0 (front: 2).
10 | network_0/router_level1_22/buf_0/vc_0 | Changing state from idle to vc_alloc.
10 | network_0/router_level1_22 | Beginning VC allocation for VC 0 at input 0 (front: 2).
10 | network_0/router_level1_22 |   Requesting VC 0 at output 14 (in_pri: 0, out_pri: 0).
10 | network_0/router_level1_22 |   Requesting VC 1 at output 14 (in_pri: 0, out_pri: 0).
10 | network_0/router_level1_22 |   Requesting VC 2 at output 14 (in_pri: 0, out_pri: 0).
10 | network_0/router_level1_22 |   Requesting VC 3 at output 14 (in_pri: 0, out_pri: 0).
10 | network_0/router_level1_22/vc_allocator | Input requests = [ 0 -> [ 56@0 57@0 58@0 59@0 ]  20 -> [ 48@0 49@0 50@0 51@0 ]  ], output requests = [ 48 -> [ 20@0 ]  49 -> [ 20@0 ]  50 -> [ 20@0 ]  51 -> [ 20@0 ]  56 -> [ 0@0 ]  57 -> [ 0@0 ]  58 -> [ 0@0 ]  59 -> [ 0@0 ]  ].
10 | network_0/router_level1_22/vc_allocator | Input grants = [ 0 -> 56  20 -> 48  ], output grants = [ 48 -> 20  56 -> 0  ].
10 | network_0/router_level1_22 | Assigning VC 0 at output 14 to VC 0 at input 0.
10 | network_0/router_level1_22 | Completed VC allocation for VC 0 at input 0 (front: 2).
10 | network_0/router_level1_22 |   Acquiring assigned VC 0 at output 14.
10 | network_0/router_level1_22/buf_0/vc_0 | Changing state from vc_alloc to active.
10 | network_0/router_level1_33 | Adding flit 1 to VC 0 at input 0 (state: idle, empty).
10 | network_0/router_level1_33 | Using precomputed lookahead routing information for VC 0 at input 0 (front: 1).
10 | network_0/router_level1_33/buf_0/vc_0 | Changing state from idle to vc_alloc.
10 | network_0/router_level1_33 | Beginning VC allocation for VC 0 at input 0 (front: 1).
10 | network_0/router_level1_33 |   Requesting VC 0 at output 14 (in_pri: 0, out_pri: 0).
10 | network_0/router_level1_33 |   Requesting VC 1 at output 14 (in_pri: 0, out_pri: 0).
10 | network_0/router_level1_33 |   Requesting VC 2 at output 14 (in_pri: 0, out_pri: 0).
10 | network_0/router_level1_33 |   Requesting VC 3 at output 14 (in_pri: 0, out_pri: 0).
10 | network_0/router_level1_33/vc_allocator | Input requests = [ 0 -> [ 56@0 57@0 58@0 59@0 ]  20 -> [ 52@0 53@0 54@0 55@0 ]  ], output requests = [ 52 -> [ 20@0 ]  53 -> [ 20@0 ]  54 -> [ 20@0 ]  55 -> [ 20@0 ]  56 -> [ 0@0 ]  57 -> [ 0@0 ]  58 -> [ 0@0 ]  59 -> [ 0@0 ]  ].
10 | network_0/router_level1_33/vc_allocator | Input grants = [ 0 -> 56  20 -> 52  ], output grants = [ 52 -> 20  56 -> 0  ].
10 | network_0/router_level1_33 | Assigning VC 0 at output 14 to VC 0 at input 0.
10 | network_0/router_level1_33 | Completed VC allocation for VC 0 at input 0 (front: 1).
10 | network_0/router_level1_33 |   Acquiring assigned VC 0 at output 14.
10 | network_0/router_level1_33/buf_0/vc_0 | Changing state from vc_alloc to active.
10 | network_0/router_level1_41 | Adding flit 7 to VC 0 at input 0 (state: idle, empty).
10 | network_0/router_level1_41 | Using precomputed lookahead routing information for VC 0 at input 0 (front: 7).
10 | network_0/router_level1_41/buf_0/vc_0 | Changing state from idle to vc_alloc.
10 | network_0/router_level1_41 | Beginning VC allocation for VC 0 at input 0 (front: 7).
10 | network_0/router_level1_41 |   Requesting VC 0 at output 14 (in_pri: 0, out_pri: 0).
10 | network_0/router_level1_41 |   Requesting VC 1 at output 14 (in_pri: 0, out_pri: 0).
10 | network_0/router_level1_41 |   Requesting VC 2 at output 14 (in_pri: 0, out_pri: 0).
10 | network_0/router_level1_41 |   Requesting VC 3 at output 14 (in_pri: 0, out_pri: 0).
10 | network_0/router_level1_41/vc_allocator | Input requests = [ 0 -> [ 56@0 57@0 58@0 59@0 ]  4 -> [ 32@0 33@0 34@0 35@0 ]  16 -> [ 36@0 37@0 38@0 39@0 ]  28 -> [ 48@0 49@0 50@0 51@0 ]  ], output requests = [ 32 -> [ 4@0 ]  33 -> [ 4@0 ]  34 -> [ 4@0 ]  35 -> [ 4@0 ]  36 -> [ 16@0 ]  37 -> [ 16@0 ]  38 -> [ 16@0 ]  39 -> [ 16@0 ]  48 -> [ 28@0 ]  49 -> [ 28@0 ]  50 -> [ 28@0 ]  51 -> [ 28@0 ]  56 -> [ 0@0 ]  57 -> [ 0@0 ]  58 -> [ 0@0 ]  59 -> [ 0@0 ]  ].
10 | network_0/router_level1_41/vc_allocator | Input grants = [ 0 -> 56  4 -> 32  16 -> 36  28 -> 48  ], output grants = [ 32 -> 4  36 -> 16  48 -> 28  56 -> 0  ].
10 | network_0/router_level1_41 | Assigning VC 0 at output 14 to VC 0 at input 0.
10 | network_0/router_level1_41 | Completed VC allocation for VC 0 at input 0 (front: 7).
10 | network_0/router_level1_41 |   Acquiring assigned VC 0 at output 14.
10 | network_0/router_level1_41/buf_0/vc_0 | Changing state from vc_alloc to active.
10 | network_0/router_level1_54 | Adding flit 10 to VC 0 at input 0 (state: idle, empty).
10 | network_0/router_level1_54 | Using precomputed lookahead routing information for VC 0 at input 0 (front: 10).
10 | network_0/router_level1_54/buf_0/vc_0 | Changing state from idle to vc_alloc.
10 | network_0/router_level1_54 | Beginning VC allocation for VC 0 at input 0 (front: 10).
10 | network_0/router_level1_54 |   Requesting VC 0 at output 10 (in_pri: 0, out_pri: 0).
10 | network_0/router_level1_54 |   Requesting VC 1 at output 10 (in_pri: 0, out_pri: 0).
10 | network_0/router_level1_54 |   Requesting VC 2 at output 10 (in_pri: 0, out_pri: 0).
10 | network_0/router_level1_54 |   Requesting VC 3 at output 10 (in_pri: 0, out_pri: 0).
10 | network_0/router_level1_54/vc_allocator | Input requests = [ 0 -> [ 40@0 41@0 42@0 43@0 ]  16 -> [ 40@0 41@0 42@0 43@0 ]  24 -> [ 36@0 37@0 38@0 39@0 ]  ], output requests = [ 36 -> [ 24@0 ]  37 -> [ 24@0 ]  38 -> [ 24@0 ]  39 -> [ 24@0 ]  40 -> [ 0@0 16@0 ]  41 -> [ 0@0 16@0 ]  42 -> [ 0@0 16@0 ]  43 -> [ 0@0 16@0 ]  ].
10 | network_0/router_level1_54/vc_allocator | Input grants = [ 0 -> 40  24 -> 36  ], output grants = [ 36 -> 24  40 -> 0  ].
10 | network_0/router_level1_54 | Assigning VC 0 at output 10 to VC 0 at input 0.
10 | network_0/router_level1_54 | Completed VC allocation for VC 0 at input 0 (front: 10).
10 | network_0/router_level1_54 |   Acquiring assigned VC 0 at output 10.
10 | network_0/router_level1_54/buf_0/vc_0 | Changing state from vc_alloc to active.
10 | network_0/router_level1_56 | Adding flit 4 to VC 0 at input 0 (state: idle, empty).
10 | network_0/router_level1_56 | Using precomputed lookahead routing information for VC 0 at input 0 (front: 4).
10 | network_0/router_level1_56/buf_0/vc_0 | Changing state from idle to vc_alloc.
10 | network_0/router_level1_56 | Beginning VC allocation for VC 0 at input 0 (front: 4).
10 | network_0/router_level1_56 |   Requesting VC 0 at output 11 (in_pri: 0, out_pri: 0).
10 | network_0/router_level1_56 |   Requesting VC 1 at output 11 (in_pri: 0, out_pri: 0).
10 | network_0/router_level1_56 |   Requesting VC 2 at output 11 (in_pri: 0, out_pri: 0).
10 | network_0/router_level1_56 |   Requesting VC 3 at output 11 (in_pri: 0, out_pri: 0).
10 | network_0/router_level1_56/vc_allocator | Input requests = [ 0 -> [ 44@0 45@0 46@0 47@0 ]  24 -> [ 32@0 33@0 34@0 35@0 ]  28 -> [ 32@0 33@0 34@0 35@0 ]  ], output requests = [ 32 -> [ 24@0 28@0 ]  33 -> [ 24@0 28@0 ]  34 -> [ 24@0 28@0 ]  35 -> [ 24@0 28@0 ]  44 -> [ 0@0 ]  45 -> [ 0@0 ]  46 -> [ 0@0 ]  47 -> [ 0@0 ]  ].
10 | network_0/router_level1_56/vc_allocator | Input grants = [ 0 -> 44  24 -> 32  ], output grants = [ 32 -> 24  44 -> 0  ].
10 | network_0/router_level1_56 | Assigning VC 0 at output 11 to VC 0 at input 0.
10 | network_0/router_level1_56 | Completed VC allocation for VC 0 at input 0 (front: 4).
10 | network_0/router_level1_56 |   Acquiring assigned VC 0 at output 11.
10 | network_0/router_level1_56/buf_0/vc_0 | Changing state from vc_alloc to active.
10 | network_0/router_level1_61 | Adding flit 3 to VC 0 at input 0 (state: idle, empty).
10 | network_0/router_level1_61 | Using precomputed lookahead routing information for VC 0 at input 0 (front: 3).
10 | network_0/router_level1_61/buf_0/vc_0 | Changing state from idle to vc_alloc.
10 | network_0/router_level1_61 | Beginning VC allocation for VC 0 at input 0 (front: 3).
10 | network_0/router_level1_61 |   Requesting VC 0 at output 12 (in_pri: 0, out_pri: 0).
10 | network_0/router_level1_61 |   Requesting VC 1 at output 12 (in_pri: 0, out_pri: 0).
10 | network_0/router_level1_61 |   Requesting VC 2 at output 12 (in_pri: 0, out_pri: 0).
10 | network_0/router_level1_61 |   Requesting VC 3 at output 12 (in_pri: 0, out_pri: 0).
10 | network_0/router_level1_61/vc_allocator | Input requests = [ 0 -> [ 48@0 49@0 50@0 51@0 ]  8 -> [ 60@0 61@0 62@0 63@0 ]  20 -> [ 32@0 33@0 34@0 35@0 ]  ], output requests = [ 32 -> [ 20@0 ]  33 -> [ 20@0 ]  34 -> [ 20@0 ]  35 -> [ 20@0 ]  48 -> [ 0@0 ]  49 -> [ 0@0 ]  50 -> [ 0@0 ]  51 -> [ 0@0 ]  60 -> [ 8@0 ]  61 -> [ 8@0 ]  62 -> [ 8@0 ]  63 -> [ 8@0 ]  ].
10 | network_0/router_level1_61/vc_allocator | Input grants = [ 0 -> 48  8 -> 60  20 -> 32  ], output grants = [ 32 -> 20  48 -> 0  60 -> 8  ].
10 | network_0/router_level1_61 | Assigning VC 0 at output 12 to VC 0 at input 0.
10 | network_0/router_level1_61 | Completed VC allocation for VC 0 at input 0 (front: 3).
10 | network_0/router_level1_61 |   Acquiring assigned VC 0 at output 12.
10 | network_0/router_level1_61/buf_0/vc_0 | Changing state from vc_alloc to active.
10 | network_0/network_0_fchan_12293 | Completed channel traversal for flit 5.
11 | network_0/router_level1_40 | Received flit 5 from channel at input 0.
11 | network_0/router_level1_4 | Beginning switch allocation for VC 0 at input 0 (front: 9).
11 | network_0/router_level1_4 |   Requesting output 14.0 (non-spec, pri: 0).
11 | network_0/router_level1_4/sw_allocator | Input requests = [ 0 -> [ 14@0 ]  4 -> [ 8@0 ]  ], output requests = [ 8 -> [ 4@0 ]  14 -> [ 0@0 ]  ].
11 | network_0/router_level1_4/sw_allocator | Input grants = [ 0 -> 14  4 -> 8  ], output grants = [ 8 -> 4  14 -> 0  ].
11 | network_0/router_level1_4 | Assigning output 14.0 to VC 0 at input 0.0.
11 | network_0/router_level1_4 | Completed switch allocation for VC 0 at input 0 (front: 9).
11 | network_0/router_level1_4 |   Scheduling switch connection from input 0.0 to output 14.0.
11 | network_0/router_level1_4 | Updating lookahead routing information for flit 9.
11 | network_0/router_level1_7 | Beginning switch allocation for VC 0 at input 0 (front: 8).
11 | network_0/router_level1_7 |   Requesting output 10.0 (non-spec, pri: 0).
11 | network_0/router_level1_7/sw_allocator | Input requests = [ 0 -> [ 10@0 ]  3 -> [ 8@0 ]  4 -> [ 14@0 ]  5 -> [ 13@0 ]  ], output requests = [ 8 -> [ 3@0 ]  10 -> [ 0@0 ]  13 -> [ 5@0 ]  14 -> [ 4@0 ]  ].
11 | network_0/router_level1_7/sw_allocator | Input grants = [ 0 -> 10  3 -> 8  4 -> 14  5 -> 13  ], output grants = [ 8 -> 3  10 -> 0  13 -> 5  14 -> 4  ].
11 | network_0/router_level1_7 | Assigning output 10.0 to VC 0 at input 0.0.
11 | network_0/router_level1_7 | Completed switch allocation for VC 0 at input 0 (front: 8).
11 | network_0/router_level1_7 |   Scheduling switch connection from input 0.0 to output 10.0.
11 | network_0/router_level1_7 | Updating lookahead routing information for flit 8.
11 | network_0/router_level1_15 | Beginning switch allocation for VC 0 at input 0 (front: 6).
11 | network_0/router_level1_15 |   Requesting output 12.0 (non-spec, pri: 0).
11 | network_0/router_level1_15/sw_allocator | Input requests = [ 0 -> [ 12@0 ]  1 -> [ 11@0 ]  ], output requests = [ 11 -> [ 1@0 ]  12 -> [ 0@0 ]  ].
11 | network_0/router_level1_15/sw_allocator | Input grants = [ 0 -> 12  1 -> 11  ], output grants = [ 11 -> 1  12 -> 0  ].
11 | network_0/router_level1_15 | Assigning output 12.0 to VC 0 at input 0.0.
11 | network_0/router_level1_15 | Completed switch allocation for VC 0 at input 0 (front: 6).
11 | network_0/router_level1_15 |   Scheduling switch connection from input 0.0 to output 12.0.
11 | network_0/router_level1_15 | Updating lookahead routing information for flit 6.
11 | network_0/router_level1_22 | Beginning switch allocation for VC 0 at input 0 (front: 2).
11 | network_0/router_level1_22 |   Requesting output 14.0 (non-spec, pri: 0).
11 | network_0/router_level1_22/sw_allocator | Input requests = [ 0 -> [ 14@0 ]  5 -> [ 12@0 ]  ], output requests = [ 12 -> [ 5@0 ]  14 -> [ 0@0 ]  ].
11 | network_0/router_level1_22/sw_allocator | Input grants = [ 0 -> 14  5 -> 12  ], output grants = [ 12 -> 5  14 -> 0  ].
11 | network_0/router_level1_22 | Assigning output 14.0 to VC 0 at input 0.0.
11 | network_0/router_level1_22 | Completed switch allocation for VC 0 at input 0 (front: 2).
11 | network_0/router_level1_22 |   Scheduling switch connection from input 0.0 to output 14.0.
11 | network_0/router_level1_22 | Updating lookahead routing information for flit 2.
11 | network_0/router_level1_33 | Beginning switch allocation for VC 0 at input 0 (front: 1).
11 | network_0/router_level1_33 |   Requesting output 14.0 (non-spec, pri: 0).
11 | network_0/router_level1_33/sw_allocator | Input requests = [ 0 -> [ 14@0 ]  5 -> [ 13@0 ]  ], output requests = [ 13 -> [ 5@0 ]  14 -> [ 0@0 ]  ].
11 | network_0/router_level1_33/sw_allocator | Input grants = [ 0 -> 14  5 -> 13  ], output grants = [ 13 -> 5  14 -> 0  ].
11 | network_0/router_level1_33 | Assigning output 14.0 to VC 0 at input 0.0.
11 | network_0/router_level1_33 | Completed switch allocation for VC 0 at input 0 (front: 1).
11 | network_0/router_level1_33 |   Scheduling switch connection from input 0.0 to output 14.0.
11 | network_0/router_level1_33 | Updating lookahead routing information for flit 1.
11 | network_0/router_level1_40 | Adding flit 5 to VC 0 at input 0 (state: idle, empty).
11 | network_0/router_level1_40 | Using precomputed lookahead routing information for VC 0 at input 0 (front: 5).
11 | network_0/router_level1_40/buf_0/vc_0 | Changing state from idle to vc_alloc.
11 | network_0/router_level1_40 | Beginning VC allocation for VC 0 at input 0 (front: 5).
11 | network_0/router_level1_40 |   Requesting VC 0 at output 11 (in_pri: 0, out_pri: 0).
11 | network_0/router_level1_40 |   Requesting VC 1 at output 11 (in_pri: 0, out_pri: 0).
11 | network_0/router_level1_40 |   Requesting VC 2 at output 11 (in_pri: 0, out_pri: 0).
11 | network_0/router_level1_40 |   Requesting VC 3 at output 11 (in_pri: 0, out_pri: 0).
11 | network_0/router_level1_40/vc_allocator | Input requests = [ 0 -> [ 44@0 45@0 46@0 47@0 ]  12 -> [ 52@0 53@0 54@0 55@0 ]  ], output requests = [ 44 -> [ 0@0 ]  45 -> [ 0@0 ]  46 -> [ 0@0 ]  47 -> [ 0@0 ]  52 -> [ 12@0 ]  53 -> [ 12@0 ]  54 -> [ 12@0 ]  55 -> [ 12@0 ]  ].
11 | network_0/router_level1_40/vc_allocator | Input grants = [ 0 -> 44  12 -> 52  ], output grants = [ 44 -> 0  52 -> 12  ].
11 | network_0/router_level1_40 | Assigning VC 0 at output 11 to VC 0 at input 0.
11 | network_0/router_level1_40 | Completed VC allocation for VC 0 at input 0 (front: 5).
11 | network_0/router_level1_40 |   Acquiring assigned VC 0 at output 11.
11 | network_0/router_level1_40/buf_0/vc_0 | Changing state from vc_alloc to active.
11 | network_0/router_level1_41 | Beginning switch allocation for VC 0 at input 0 (front: 7).
[...]
27 | network_0/router_level3_508 | Completed switch allocation for VC 0 at input 15 (front: 6).
27 | network_0/router_level3_508 |   Scheduling switch connection from input 15.0 to output 0.0.
27 | network_0/router_level3_509 | Adding flit 5 to VC 1 at input 8 (state: idle, empty).
27 | network_0/router_level3_509 | Using precomputed lookahead routing information for VC 1 at input 8 (front: 5).
27 | network_0/router_level3_509/buf_8/vc_1 | Changing state from idle to vc_alloc.
27 | network_0/router_level3_509 | Beginning VC allocation for VC 1 at input 8 (front: 5).
27 | network_0/router_level3_509 |   Requesting VC 0 at output 3 (in_pri: 0, out_pri: 0).
27 | network_0/router_level3_509 |   Requesting VC 1 at output 3 (in_pri: 0, out_pri: 0).
27 | network_0/router_level3_509 |   Requesting VC 2 at output 3 (in_pri: 0, out_pri: 0).
27 | network_0/router_level3_509 |   Requesting VC 3 at output 3 (in_pri: 0, out_pri: 0).
27 | network_0/router_level3_509/vc_allocator | Input requests = [ 11 -> [ 44@0 45@0 46@0 47@0 ]  29 -> [ 40@0 41@0 42@0 43@0 ]  33 -> [ 12@0 13@0 14@0 15@0 ]  44 -> [ 21@0 22@0 23@0 ]  ], output requests = [ 12 -> [ 33@0 ]  13 -> [ 33@0 ]  14 -> [ 33@0 ]  15 -> [ 33@0 ]  21 -> [ 44@0 ]  22 -> [ 44@0 ]  23 -> [ 44@0 ]  40 -> [ 29@0 ]  41 -> [ 29@0 ]  42 -> [ 29@0 ]  43 -> [ 29@0 ]  44 -> [ 11@0 ]  45 -> [ 11@0 ]  46 -> [ 11@0 ]  47 -> [ 11@0 ]  ].
27 | network_0/router_level3_509/vc_allocator | Input grants = [ 11 -> 44  29 -> 40  33 -> 12  44 -> 21  ], output grants = [ 12 -> 33  21 -> 44  40 -> 29  44 -> 11  ].
27 | network_0/router_level3_509 | Assigning VC 0 at output 3 to VC 1 at input 8.
27 | network_0/router_level3_509 | Beginning switch allocation for VC 0 at input 8 (front: 4).
27 | network_0/router_level3_509 |   Requesting output 5.0 (non-spec, pri: 0).
27 | network_0/router_level3_509/sw_allocator | Input requests = [ 0 -> [ 12@0 ]  3 -> [ 14@0 ]  5 -> [ 9@0 ]  7 -> [ 8@0 ]  8 -> [ 5@0 ]  ], output requests = [ 5 -> [ 8@0 ]  8 -> [ 7@0 ]  9 -> [ 5@0 ]  12 -> [ 0@0 ]  14 -> [ 3@0 ]  ].
27 | network_0/router_level3_509/sw_allocator | Input grants = [ 0 -> 12  3 -> 14  5 -> 9  7 -> 8  8 -> 5  ], output grants = [ 5 -> 8  8 -> 7  9 -> 5  12 -> 0  14 -> 3  ].
27 | network_0/router_level3_509 | Assigning output 5.0 to VC 0 at input 8.0.
27 | network_0/router_level3_509 | Completed VC allocation for VC 1 at input 8 (front: 5).
27 | network_0/router_level3_509 |   Acquiring assigned VC 0 at output 3.
27 | network_0/router_level3_509/buf_8/vc_1 | Changing state from vc_alloc to active.
27 | network_0/router_level3_509 | Completed switch allocation for VC 0 at input 8 (front: 4).
27 | network_0/router_level3_509 |   Scheduling switch connection from input 8.0 to output 5.0.
27 | network_0/router_level3_510 | Beginning switch allocation for VC 0 at input 9 (front: 1).
27 | network_0/router_level3_510 |   Requesting output 2.0 (non-spec, pri: 0).
27 | network_0/router_level3_510 | Beginning switch allocation for VC 0 at input 13 (front: 3).
27 | network_0/router_level3_510 |   Requesting output 0.0 (non-spec, pri: 0).
27 | network_0/router_level3_510 | Beginning switch allocation for VC 0 at input 14 (front: 2).
27 | network_0/router_level3_510 |   Requesting output 1.0 (non-spec, pri: 0).
27 | network_0/router_level3_510/sw_allocator | Input requests = [ 1 -> [ 11@0 ]  7 -> [ 13@0 ]  9 -> [ 2@0 ]  11 -> [ 4@0 ]  13 -> [ 0@0 ]  14 -> [ 1@0 ]  ], output requests = [ 0 -> [ 13@0 ]  1 -> [ 14@0 ]  2 -> [ 9@0 ]  4 -> [ 11@0 ]  11 -> [ 1@0 ]  13 -> [ 7@0 ]  ].
27 | network_0/router_level3_510/sw_allocator | Input grants = [ 1 -> 11  7 -> 13  9 -> 2  11 -> 4  13 -> 0  14 -> 1  ], output grants = [ 0 -> 13  1 -> 14  2 -> 9  4 -> 11  11 -> 1  13 -> 7  ].
27 | network_0/router_level3_510 | Assigning output 2.0 to VC 0 at input 9.0.
27 | network_0/router_level3_510 | Assigning output 0.0 to VC 0 at input 13.0.
27 | network_0/router_level3_510 | Assigning output 1.0 to VC 0 at input 14.0.
27 | network_0/router_level3_510 | Completed switch allocation for VC 0 at input 9 (front: 1).
27 | network_0/router_level3_510 |   Scheduling switch connection from input 9.0 to output 2.0.
27 | network_0/router_level3_510 | Completed switch allocation for VC 0 at input 13 (front: 3).
27 | network_0/router_level3_510 |   Scheduling switch connection from input 13.0 to output 0.0.
27 | network_0/router_level3_510 | Completed switch allocation for VC 0 at input 14 (front: 2).
27 | network_0/router_level3_510 |   Scheduling switch connection from input 14.0 to output 1.0.
28 | network_0/router_level3_505 | Beginning crossbar traversal for flit 10 from input 14.0 to output 2.0.
28 | network_0/router_level3_505 | Completed crossbar traversal for flit 10 from input 14.0 to output 2.0.
28 | network_0/router_level3_505 | Buffering flit 10 at output 2.
28 | network_0/router_level3_506 | Beginning crossbar traversal for flit 9 from input 12.0 to output 0.0.
28 | network_0/router_level3_506 | Beginning crossbar traversal for flit 8 from input 15.0 to output 7.0.
28 | network_0/router_level3_506 | Completed crossbar traversal for flit 9 from input 12.0 to output 0.0.
28 | network_0/router_level3_506 | Buffering flit 9 at output 0.
28 | network_0/router_level3_506 | Completed crossbar traversal for flit 8 from input 15.0 to output 7.0.
28 | network_0/router_level3_506 | Buffering flit 8 at output 7.
28 | network_0/router_level3_507 | Beginning crossbar traversal for flit 7 from input 9.0 to output 5.0.
28 | network_0/router_level3_507 | Completed crossbar traversal for flit 7 from input 9.0 to output 5.0.
28 | network_0/router_level3_507 | Buffering flit 7 at output 5.
28 | network_0/router_level3_508 | Beginning crossbar traversal for flit 6 from input 15.0 to output 0.0.
28 | network_0/router_level3_508 | Completed crossbar traversal for flit 6 from input 15.0 to output 0.0.
28 | network_0/router_level3_508 | Buffering flit 6 at output 0.
28 | network_0/router_level3_509 | Beginning switch allocation for VC 1 at input 8 (front: 5).
28 | network_0/router_level3_509 |   Requesting output 3.0 (non-spec, pri: 0).
28 | network_0/router_level3_509/sw_allocator | Input requests = [ 2 -> [ 11@0 ]  7 -> [ 10@0 ]  8 -> [ 3@0 ]  11 -> [ 5@0 ]  ], output requests = [ 3 -> [ 8@0 ]  5 -> [ 11@0 ]  10 -> [ 7@0 ]  11 -> [ 2@0 ]  ].
28 | network_0/router_level3_509/sw_allocator | Input grants = [ 2 -> 11  7 -> 10  8 -> 3  11 -> 5  ], output grants = [ 3 -> 8  5 -> 11  10 -> 7  11 -> 2  ].
28 | network_0/router_level3_509 | Assigning output 3.0 to VC 1 at input 8.0.
28 | network_0/router_level3_509 | Beginning crossbar traversal for flit 4 from input 8.0 to output 5.0.
28 | network_0/router_level3_509 | Completed switch allocation for VC 1 at input 8 (front: 5).
28 | network_0/router_level3_509 |   Scheduling switch connection from input 8.0 to output 3.0.
28 | network_0/router_level3_509 | Completed crossbar traversal for flit 4 from input 8.0 to output 5.0.
28 | network_0/router_level3_509 | Buffering flit 4 at output 5.
28 | network_0/router_level3_510 | Beginning crossbar traversal for flit 1 from input 9.0 to output 2.0.
28 | network_0/router_level3_510 | Beginning crossbar traversal for flit 3 from input 13.0 to output 0.0.
28 | network_0/router_level3_510 | Beginning crossbar traversal for flit 2 from input 14.0 to output 1.0.
28 | network_0/router_level3_510 | Completed crossbar traversal for flit 1 from input 9.0 to output 2.0.
28 | network_0/router_level3_510 | Buffering flit 1 at output 2.
28 | network_0/router_level3_510 | Completed crossbar traversal for flit 3 from input 13.0 to output 0.0.
28 | network_0/router_level3_510 | Buffering flit 3 at output 0.
28 | network_0/router_level3_510 | Completed crossbar traversal for flit 2 from input 14.0 to output 1.0.
28 | network_0/router_level3_510 | Buffering flit 2 at output 1.
28 | network_0/router_level3_505 | Sending flit 10 to channel at output 2.
28 | network_0/router_level3_506 | Sending flit 9 to channel at output 0.
28 | network_0/router_level3_506 | Sending flit 8 to channel at output 7.
28 | network_0/router_level3_507 | Sending flit 7 to channel at output 5.
28 | network_0/router_level3_508 | Sending flit 6 to channel at output 0.
28 | network_0/router_level3_509 | Sending flit 4 to channel at output 5.
28 | network_0/router_level3_510 | Sending flit 3 to channel at output 0.
28 | network_0/router_level3_510 | Sending flit 2 to channel at output 1.
28 | network_0/router_level3_510 | Sending flit 1 to channel at output 2.
29 | network_0/network_0_fchan_egress4042 | Beginning channel traversal for flit 10 with delay 1.
29 | network_0/network_0_fchan_egress4048 | Beginning channel traversal for flit 9 with delay 1.
29 | network_0/network_0_fchan_egress4055 | Beginning channel traversal for flit 8 with delay 1.
29 | network_0/network_0_fchan_egress4061 | Beginning channel traversal for flit 7 with delay 1.
29 | network_0/network_0_fchan_egress4064 | Beginning channel traversal for flit 6 with delay 1.
29 | network_0/network_0_fchan_egress4077 | Beginning channel traversal for flit 4 with delay 1.
29 | network_0/network_0_fchan_egress4080 | Beginning channel traversal for flit 3 with delay 1.
29 | network_0/network_0_fchan_egress4081 | Beginning channel traversal for flit 2 with delay 1.
29 | network_0/network_0_fchan_egress4082 | Beginning channel traversal for flit 1 with delay 1.
29 | network_0/router_level3_509 | Beginning crossbar traversal for flit 5 from input 8.0 to output 3.0.
29 | network_0/router_level3_509 | Completed crossbar traversal for flit 5 from input 8.0 to output 3.0.
29 | network_0/router_level3_509 | Buffering flit 5 at output 3.
29 | network_0/network_0_fchan_egress4042 | Completed channel traversal for flit 10.
29 | network_0/network_0_fchan_egress4048 | Completed channel traversal for flit 9.
29 | network_0/network_0_fchan_egress4055 | Completed channel traversal for flit 8.
29 | network_0/network_0_fchan_egress4061 | Completed channel traversal for flit 7.
29 | network_0/network_0_fchan_egress4064 | Completed channel traversal for flit 6.
29 | network_0/network_0_fchan_egress4077 | Completed channel traversal for flit 4.
29 | network_0/network_0_fchan_egress4080 | Completed channel traversal for flit 3.
29 | network_0/network_0_fchan_egress4081 | Completed channel traversal for flit 2.
29 | network_0/network_0_fchan_egress4082 | Completed channel traversal for flit 1.
29 | network_0/router_level3_509 | Sending flit 5 to channel at output 3.
30 | node4042 | Ejecting flit 10 (packet 10) from VC 0.
30 | node4048 | Ejecting flit 9 (packet 9) from VC 0.
30 | node4055 | Ejecting flit 8 (packet 8) from VC 0.
30 | node4061 | Ejecting flit 7 (packet 7) from VC 0.
30 | node4064 | Ejecting flit 6 (packet 6) from VC 0.
30 | node4077 | Ejecting flit 4 (packet 4) from VC 0.
30 | node4080 | Ejecting flit 3 (packet 3) from VC 0.
30 | node4081 | Ejecting flit 2 (packet 2) from VC 0.
30 | node4082 | Ejecting flit 1 (packet 1) from VC 0.
30 | network_0/network_0_fchan_egress4075 | Beginning channel traversal for flit 5 with delay 1.
30 | node4042 | Injecting credit for VC 0 into subnet 0.
30 | node4042 | Retiring flit 10 (packet 10, src = 53, dest = 4042, hops = 7, flat = 30).
30 | node4042 | Retiring packet 10 (plat = 30, nlat = 30, frag = 0, src = 53, dest = 4042).
30 | node4048 | Injecting credit for VC 0 into subnet 0.
30 | node4048 | Retiring flit 9 (packet 9, src = 47, dest = 4048, hops = 7, flat = 30).
30 | node4048 | Retiring packet 9 (plat = 30, nlat = 30, frag = 0, src = 47, dest = 4048).
30 | node4055 | Injecting credit for VC 0 into subnet 0.
30 | node4055 | Retiring flit 8 (packet 8, src = 40, dest = 4055, hops = 7, flat = 30).
30 | node4055 | Retiring packet 8 (plat = 30, nlat = 30, frag = 0, src = 40, dest = 4055).
30 | node4061 | Injecting credit for VC 0 into subnet 0.
30 | node4061 | Retiring flit 7 (packet 7, src = 34, dest = 4061, hops = 7, flat = 30).
30 | node4061 | Retiring packet 7 (plat = 30, nlat = 30, frag = 0, src = 34, dest = 4061).
30 | node4064 | Injecting credit for VC 0 into subnet 0.
30 | node4064 | Retiring flit 6 (packet 6, src = 31, dest = 4064, hops = 7, flat = 30).
30 | node4064 | Retiring packet 6 (plat = 30, nlat = 30, frag = 0, src = 31, dest = 4064).
30 | node4077 | Injecting credit for VC 0 into subnet 0.
30 | node4077 | Retiring flit 4 (packet 4, src = 18, dest = 4077, hops = 7, flat = 30).
30 | node4077 | Retiring packet 4 (plat = 30, nlat = 30, frag = 0, src = 18, dest = 4077).
30 | node4080 | Injecting credit for VC 0 into subnet 0.
30 | node4080 | Retiring flit 3 (packet 3, src = 15, dest = 4080, hops = 7, flat = 30).
30 | node4080 | Retiring packet 3 (plat = 30, nlat = 30, frag = 0, src = 15, dest = 4080).
30 | node4081 | Injecting credit for VC 0 into subnet 0.
30 | node4081 | Retiring flit 2 (packet 2, src = 14, dest = 4081, hops = 7, flat = 30).
30 | node4081 | Retiring packet 2 (plat = 30, nlat = 30, frag = 0, src = 14, dest = 4081).
30 | node4082 | Injecting credit for VC 0 into subnet 0.
30 | node4082 | Retiring flit 1 (packet 1, src = 13, dest = 4082, hops = 7, flat = 30).
30 | node4082 | Retiring packet 1 (plat = 30, nlat = 30, frag = 0, src = 13, dest = 4082).
30 | network_0/network_0_fchan_egress4075 | Completed channel traversal for flit 5.
31 | node4075 | Ejecting flit 5 (packet 5) from VC 0.
31 | node4075 | Injecting credit for VC 0 into subnet 0.
31 | node4075 | Retiring flit 5 (packet 5, src = 20, dest = 4075, hops = 7, flat = 31).
31 | node4075 | Retiring packet 5 (plat = 31, nlat = 31, frag = 0, src = 20, dest = 4075).
Class 0:
Packet latency average = 31.4549
	minimum = 30
	maximum = 55
Network latency average = 31.4549
	minimum = 30
	maximum = 55
Slowest packet = 1073196
Flit latency average = 31.4549
	minimum = 30
	maximum = 55
Slowest flit = 1073196
Fragmentation average = 0
	minimum = 0
	maximum = 0
Injected packet rate average = 0.299721
	minimum = 0.247 (at node 3445)
	maximum = 0.345 (at node 761)
Accepted packet rate average = 0.290229
	minimum = 0.237 (at node 650)
	maximum = 0.338 (at node 953)
Injected flit rate average = 0.299721
	minimum = 0.247 (at node 3445)
	maximum = 0.345 (at node 761)
Accepted flit rate average= 0.290229
	minimum = 0.237 (at node 650)
	maximum = 0.338 (at node 953)
Injected packet length average = 1
Accepted packet length average = 1
Total in-flight flits = 38879 (0 measured)
latency change    = 1
throughput change = 1
Class 0:
Packet latency average = 31.463
	minimum = 30
	maximum = 55
Network latency average = 31.463
	minimum = 30
	maximum = 55
Slowest packet = 1073196
Flit latency average = 31.463
	minimum = 30
	maximum = 55
Slowest flit = 1073196
Fragmentation average = 0
	minimum = 0
	maximum = 0
Injected packet rate average = 0.299846
	minimum = 0.266 (at node 562)
	maximum = 0.3355 (at node 3923)
Accepted packet rate average = 0.295172
	minimum = 0.263 (at node 641)
	maximum = 0.3315 (at node 277)
Injected flit rate average = 0.299846
	minimum = 0.266 (at node 562)
	maximum = 0.3355 (at node 3923)
Accepted flit rate average= 0.295172
	minimum = 0.263 (at node 641)
	maximum = 0.3315 (at node 277)
Injected packet length average = 1
Accepted packet length average = 1
Total in-flight flits = 38292 (0 measured)
latency change    = 0.000256737
throughput change = 0.0167449
Class 0:
Packet latency average = 31.4655
	minimum = 30
	maximum = 57
Network latency average = 31.4655
	minimum = 30
	maximum = 57
Slowest packet = 2948079
Flit latency average = 31.4655
	minimum = 30
	maximum = 57
Slowest flit = 2948079
Fragmentation average = 0
	minimum = 0
	maximum = 0
Injected packet rate average = 0.300108
	minimum = 0.244 (at node 3853)
	maximum = 0.35 (at node 2471)
Accepted packet rate average = 0.300012
	minimum = 0.245 (at node 2106)
	maximum = 0.353 (at node 1624)
Injected flit rate average = 0.300108
	minimum = 0.244 (at node 3853)
	maximum = 0.35 (at node 2471)
Accepted flit rate average= 0.300012
	minimum = 0.245 (at node 2106)
	maximum = 0.353 (at node 1624)
Injected packet length average = 1
Accepted packet length average = 1
Total in-flight flits = 38688 (0 measured)
latency change    = 7.73428e-05
throughput change = 0.0161322
Warmed up ...Time used is 3000 cycles
Class 0:
Packet latency average = 31.4695
	minimum = 30
	maximum = 56
Network latency average = 31.4695
	minimum = 30
	maximum = 56
Slowest packet = 4812823
Flit latency average = 31.4716
	minimum = 30
	maximum = 56
Slowest flit = 4812823
Fragmentation average = 0
	minimum = 0
	maximum = 0
Injected packet rate average = 0.299799
	minimum = 0.243 (at node 3355)
	maximum = 0.354 (at node 3684)
Accepted packet rate average = 0.299878
	minimum = 0.246 (at node 740)
	maximum = 0.351 (at node 411)
Injected flit rate average = 0.299799
	minimum = 0.243 (at node 3355)
	maximum = 0.354 (at node 3684)
Accepted flit rate average= 0.299878
	minimum = 0.246 (at node 740)
	maximum = 0.351 (at node 411)
Injected packet length average = 1
Accepted packet length average = 1
Total in-flight flits = 38362 (38362 measured)
latency change    = 0.000128248
throughput change = 0.000445331
Class 0:
Packet latency average = 31.4728
	minimum = 30
	maximum = 56
Network latency average = 31.4728
	minimum = 30
	maximum = 56
Slowest packet = 4812823
Flit latency average = 31.4738
	minimum = 30
	maximum = 56
Slowest flit = 4812823
Fragmentation average = 0
	minimum = 0
	maximum = 0
Injected packet rate average = 0.299984
	minimum = 0.266 (at node 3143)
	maximum = 0.3345 (at node 2152)
Accepted packet rate average = 0.3
	minimum = 0.2655 (at node 952)
	maximum = 0.3335 (at node 1943)
Injected flit rate average = 0.299984
	minimum = 0.266 (at node 3143)
	maximum = 0.3345 (at node 2152)
Accepted flit rate average= 0.3
	minimum = 0.2655 (at node 952)
	maximum = 0.3335 (at node 1943)
Injected packet length average = 1
Accepted packet length average = 1
Total in-flight flits = 38559 (38559 measured)
latency change    = 0.000104614
throughput change = 0.000405681
Class 0:
Packet latency average = 31.4725
	minimum = 30
	maximum = 56
Network latency average = 31.4725
	minimum = 30
	maximum = 56
Slowest packet = 4812823
Flit latency average = 31.4731
	minimum = 30
	maximum = 56
Slowest flit = 4812823
Fragmentation average = 0
	minimum = 0
	maximum = 0
Injected packet rate average = 0.300054
	minimum = 0.268 (at node 3010)
	maximum = 0.328 (at node 580)
Accepted packet rate average = 0.300052
	minimum = 0.267667 (at node 1085)
	maximum = 0.329 (at node 1510)
Injected flit rate average = 0.300054
	minimum = 0.268 (at node 3010)
	maximum = 0.328 (at node 580)
Accepted flit rate average= 0.300052
	minimum = 0.267667 (at node 1085)
	maximum = 0.329 (at node 1510)
Injected packet length average = 1
Accepted packet length average = 1
Total in-flight flits = 38708 (38708 measured)
latency change    = 1.01748e-05
throughput change = 0.000174259
Draining all recorded packets ...
Draining remaining packets ...
Time taken is 6086 cycles
====== Overall Traffic Statistics ======
====== Traffic class 0 ======
Packet latency average = 31.4733 (1 samples)
	minimum = 30 (1 samples)
	maximum = 56 (1 samples)
Network latency average = 31.4733 (1 samples)
	minimum = 30 (1 samples)
	maximum = 56 (1 samples)
Flit latency average = 31.474 (1 samples)
	minimum = 30 (1 samples)
	maximum = 56 (1 samples)
Fragmentation average = 0 (1 samples)
	minimum = 0 (1 samples)
	maximum = 0 (1 samples)
Injected packet rate average = 0.300054 (1 samples)
	minimum = 0.268 (1 samples)
	maximum = 0.328 (1 samples)
Accepted packet rate average = 0.300052 (1 samples)
	minimum = 0.267667 (1 samples)
	maximum = 0.329 (1 samples)
Injected flit rate average = 0.300054 (1 samples)
	minimum = 0.268 (1 samples)
	maximum = 0.328 (1 samples)
Accepted flit rate average = 0.300052 (1 samples)
	minimum = 0.267667 (1 samples)
	maximum = 0.329 (1 samples)
Injected packet size average = 1 (1 samples)
Accepted packet size average = 1 (1 samples)
Hops average = 7 (1 samples)
Total run time 729.317
