BEGIN Configuration File: examples/fattree_config_0.30_1_uniform
// $Id: dragonflyconfig 3555 2011-05-16 23:37:55Z dub $

// Copyright (c) 2007-2015, Trustees of The Leland Stanford Junior University
// All rights reserved.
//
// Redistribution and use in source and binary forms, with or without
// modification, are permitted provided that the following conditions are met:
//
// Redistributions of source code must retain the above copyright notice, this
// list of conditions and the following disclaimer.
// Redistributions in binary form must reproduce the above copyright notice,
// this list of conditions and the following disclaimer in the documentation
// and/or other materials provided with the distribution.
//
// THIS SOFTWARE IS PROVIDED BY THE COPYRIGHT HOLDERS AND CONTRIBUTORS "AS IS"
// AND ANY EXPRESS OR IMPLIED WARRANTIES, INCLUDING, BUT NOT LIMITED TO, THE
// IMPLIED WARRANTIES OF MERCHANTABILITY AND FITNESS FOR A PARTICULAR PURPOSE
// ARE DISCLAIMED. IN NO EVENT SHALL THE COPYRIGHT OWNER OR CONTRIBUTORS BE
// LIABLE FOR ANY DIRECT, INDIRECT, INCIDENTAL, SPECIAL, EXEMPLARY, OR
// CONSEQUENTIAL DAMAGES (INCLUDING, BUT NOT LIMITED TO, PROCUREMENT OF
// SUBSTITUTE GOODS OR SERVICES; LOSS OF USE, DATA, OR PROFITS; OR BUSINESS
// INTERRUPTION) HOWEVER CAUSED AND ON ANY THEORY OF LIABILITY, WHETHER IN
// CONTRACT, STRICT LIABILITY, OR TORT (INCLUDING NEGLIGENCE OR OTHERWISE)
// ARISING IN ANY WAY OUT OF THE USE OF THIS SOFTWARE, EVEN IF ADVISED OF THE
// POSSIBILITY OF SUCH DAMAGE.


hold_switch_for_packet=1;

vc_buf_size = 16;


wait_for_tail_credit = 0;

//
// Router architecture
//
vc_allocator = separable_input_first; 
sw_allocator = separable_input_first;
alloc_iters  = 1;

credit_delay   = 2;
routing_delay  = 0;
vc_alloc_delay = 1;
sw_alloc_delay = 1;
st_final_delay = 1;

input_speedup     = 1;
output_speedup    = 1;
internal_speedup  = 1.0;


warmup_periods = 3;
sim_count          = 1;

sample_period  = 1000;  

routing_function = nca;
num_vcs     = 4;

priority = none;
traffic = uniform;


injection_rate = 0.30;
packet_size = 1;
injection_rate_uses_flits=1;

topology = fattree;

k  = 8;
n  = 4;
t = 1;

watch_file = watchfile.txt;
watch_out=-;
stats_out = examples/fattree_config_0.30_1_uniform.m;

END Configuration File: examples/fattree_config_0.30_1_uniform
Fat Tree
 k = 8 levels = 4
 each switch - total radix =  16
 # of switches = 2048
 # of channels = 24576
 # of nodes ( size of network ) = 4096
 tapering factor = 1
0 | node13 | Enqueuing flit 1 (packet 1) at time 0.
0 | node14 | Enqueuing flit 2 (packet 2) at time 0.
0 | node15 | Enqueuing flit 3 (packet 3) at time 0.
0 | node18 | Enqueuing flit 4 (packet 4) at time 0.
0 | node20 | Enqueuing flit 5 (packet 5) at time 0.
0 | node31 | Enqueuing flit 6 (packet 6) at time 0.
0 | node34 | Enqueuing flit 7 (packet 7) at time 0.
0 | node40 | Enqueuing flit 8 (packet 8) at time 0.
0 | node47 | Enqueuing flit 9 (packet 9) at time 0.
0 | node53 | Enqueuing flit 10 (packet 10) at time 0.
0 | traffic_manager | Finding output VC for flit 1:
0 | traffic_manager |   Selected output VC 0.
0 | node13 | Generating lookahead routing info for flit 1.
0 | node13 | Injecting flit 1 into subnet 0 at time 0 with priority 0.
0 | traffic_manager | Finding output VC for flit 2:
0 | traffic_manager |   Selected output VC 0.
0 | node14 | Generating lookahead routing info for flit 2.
0 | node14 | Injecting flit 2 into subnet 0 at time 0 with priority 0.
0 | traffic_manager | Finding output VC for flit 3:
0 | traffic_manager |   Selected output VC 0.
0 | node15 | Generating lookahead routing info for flit 3.
0 | node15 | Injecting flit 3 into subnet 0 at time 0 with priority 0.
0 | traffic_manager | Finding output VC for flit 4:
0 | traffic_manager |   Selected output VC 0.
0 | node18 | Generating lookahead routing info for flit 4.
0 | node18 | Injecting flit 4 into subnet 0 at time 0 with priority 0.
0 | traffic_manager | Finding output VC for flit 5:
0 | traffic_manager |   Selected output VC 0.
0 | node20 | Generating lookahead routing info for flit 5.
0 | node20 | Injecting flit 5 into subnet 0 at time 0 with priority 0.
0 | traffic_manager | Finding output VC for flit 6:
0 | traffic_manager |   Selected output VC 0.
0 | node31 | Generating lookahead routing info for flit 6.
0 | node31 | Injecting flit 6 into subnet 0 at time 0 with priority 0.
0 | traffic_manager | Finding output VC for flit 7:
0 | traffic_manager |   Selected output VC 0.
0 | node34 | Generating lookahead routing info for flit 7.
0 | node34 | Injecting flit 7 into subnet 0 at time 0 with priority 0.
0 | traffic_manager | Finding output VC for flit 8:
0 | traffic_manager |   Selected output VC 0.
0 | node40 | Generating lookahead routing info for flit 8.
0 | node40 | Injecting flit 8 into subnet 0 at time 0 with priority 0.
0 | traffic_manager | Finding output VC for flit 9:
0 | traffic_manager |   Selected output VC 0.
0 | node47 | Generating lookahead routing info for flit 9.
0 | node47 | Injecting flit 9 into subnet 0 at time 0 with priority 0.
0 | traffic_manager | Finding output VC for flit 10:
0 | traffic_manager |   Selected output VC 0.
0 | node53 | Generating lookahead routing info for flit 10.
0 | node53 | Injecting flit 10 into subnet 0 at time 0 with priority 0.
1 | network_0/network_0_fchan_ingress13 | Beginning channel traversal for flit 1 with delay 1.
1 | network_0/network_0_fchan_ingress14 | Beginning channel traversal for flit 2 with delay 1.
1 | network_0/network_0_fchan_ingress15 | Beginning channel traversal for flit 3 with delay 1.
1 | network_0/network_0_fchan_ingress18 | Beginning channel traversal for flit 4 with delay 1.
1 | network_0/network_0_fchan_ingress20 | Beginning channel traversal for flit 5 with delay 1.
1 | network_0/network_0_fchan_ingress31 | Beginning channel traversal for flit 6 with delay 1.
1 | network_0/network_0_fchan_ingress34 | Beginning channel traversal for flit 7 with delay 1.
1 | network_0/network_0_fchan_ingress40 | Beginning channel traversal for flit 8 with delay 1.
1 | network_0/network_0_fchan_ingress47 | Beginning channel traversal for flit 9 with delay 1.
1 | network_0/network_0_fchan_ingress53 | Beginning channel traversal for flit 10 with delay 1.
1 | network_0/network_0_fchan_ingress13 | Completed channel traversal for flit 1.
1 | network_0/network_0_fchan_ingress14 | Completed channel traversal for flit 2.
1 | network_0/network_0_fchan_ingress15 | Completed channel traversal for flit 3.
1 | network_0/network_0_fchan_ingress18 | Completed channel traversal for flit 4.
1 | network_0/network_0_fchan_ingress20 | Completed channel traversal for flit 5.
1 | network_0/network_0_fchan_ingress31 | Completed channel traversal for flit 6.
1 | network_0/network_0_fchan_ingress34 | Completed channel traversal for flit 7.
1 | network_0/network_0_fchan_ingress40 | Completed channel traversal for flit 8.
1 | network_0/network_0_fchan_ingress47 | Completed channel traversal for flit 9.
1 | network_0/network_0_fchan_ingress53 | Completed channel traversal for flit 10.
2 | network_0/router_level3_1 | Received flit 1 from channel at input 5.
2 | network_0/router_level3_1 | Received flit 2 from channel at input 6.
2 | network_0/router_level3_1 | Received flit 3 from channel at input 7.
2 | network_0/router_level3_2 | Received flit 4 from channel at input 2.
2 | network_0/router_level3_2 | Received flit 5 from channel at input 4.
2 | network_0/router_level3_3 | Received flit 6 from channel at input 7.
2 | network_0/router_level3_4 | Received flit 7 from channel at input 2.
2 | network_0/router_level3_5 | Received flit 8 from channel at input 0.
2 | network_0/router_level3_5 | Received flit 9 from channel at input 7.
2 | network_0/router_level3_6 | Received flit 10 from channel at input 5.
2 | network_0/router_level3_1 | Adding flit 1 to VC 0 at input 5 (state: idle, empty).
2 | network_0/router_level3_1 | Using precomputed lookahead routing information for VC 0 at input 5 (front: 1).
2 | network_0/router_level3_1/buf_5/vc_0 | Changing state from idle to vc_alloc.
2 | network_0/router_level3_1 | Adding flit 2 to VC 0 at input 6 (state: idle, empty).
2 | network_0/router_level3_1 | Using precomputed lookahead routing information for VC 0 at input 6 (front: 2).
2 | network_0/router_level3_1/buf_6/vc_0 | Changing state from idle to vc_alloc.
2 | network_0/router_level3_1 | Adding flit 3 to VC 0 at input 7 (state: idle, empty).
2 | network_0/router_level3_1 | Using precomputed lookahead routing information for VC 0 at input 7 (front: 3).
2 | network_0/router_level3_1/buf_7/vc_0 | Changing state from idle to vc_alloc.
2 | network_0/router_level3_1 | Beginning VC allocation for VC 0 at input 5 (front: 1).
2 | network_0/router_level3_1 |   Requesting VC 0 at output 9 (in_pri: 0, out_pri: 0).
2 | network_0/router_level3_1 |   Requesting VC 1 at output 9 (in_pri: 0, out_pri: 0).
2 | network_0/router_level3_1 |   Requesting VC 2 at output 9 (in_pri: 0, out_pri: 0).
2 | network_0/router_level3_1 |   Requesting VC 3 at output 9 (in_pri: 0, out_pri: 0).
2 | network_0/router_level3_1 | Beginning VC allocation for VC 0 at input 6 (front: 2).
2 | network_0/router_level3_1 |   Requesting VC 0 at output 12 (in_pri: 0, out_pri: 0).
2 | network_0/router_level3_1 |   Requesting VC 1 at output 12 (in_pri: 0, out_pri: 0).
2 | network_0/router_level3_1 |   Requesting VC 2 at output 12 (in_pri: 0, out_pri: 0).
2 | network_0/router_level3_1 |   Requesting VC 3 at output 12 (in_pri: 0, out_pri: 0).
2 | network_0/router_level3_1 | Beginning VC allocation for VC 0 at input 7 (front: 3).
2 | network_0/router_level3_1 |   Requesting VC 0 at output 8 (in_pri: 0, out_pri: 0).
2 | network_0/router_level3_1 |   Requesting VC 1 at output 8 (in_pri: 0, out_pri: 0).
2 | network_0/router_level3_1 |   Requesting VC 2 at output 8 (in_pri: 0, out_pri: 0).
2 | network_0/router_level3_1 |   Requesting VC 3 at output 8 (in_pri: 0, out_pri: 0).
2 | network_0/router_level3_1/vc_allocator | Input requests = [ 12 -> [ 48@0 49@0 50@0 51@0 ]  20 -> [ 36@0 37@0 38@0 39@0 ]  24 -> [ 48@0 49@0 50@0 51@0 ]  28 -> [ 32@0 33@0 34@0 35@0 ]  ], output requests = [ 32 -> [ 28@0 ]  33 -> [ 28@0 ]  34 -> [ 28@0 ]  35 -> [ 28@0 ]  36 -> [ 20@0 ]  37 -> [ 20@0 ]  38 -> [ 20@0 ]  39 -> [ 20@0 ]  48 -> [ 12@0 24@0 ]  49 -> [ 12@0 24@0 ]  50 -> [ 12@0 24@0 ]  51 -> [ 12@0 24@0 ]  ].
2 | network_0/router_level3_1/vc_allocator | Input grants = [ 12 -> 48  20 -> 36  28 -> 32  ], output grants = [ 32 -> 28  36 -> 20  48 -> 12  ].
2 | network_0/router_level3_1 | Assigning VC 0 at output 9 to VC 0 at input 5.
2 | network_0/router_level3_1 | VC allocation failed for VC 0 at input 6.
2 | network_0/router_level3_1 | Assigning VC 0 at output 8 to VC 0 at input 7.
2 | network_0/router_level3_1 | Completed VC allocation for VC 0 at input 5 (front: 1).
2 | network_0/router_level3_1 |   Acquiring assigned VC 0 at output 9.
2 | network_0/router_level3_1/buf_5/vc_0 | Changing state from vc_alloc to active.
2 | network_0/router_level3_1 | Completed VC allocation for VC 0 at input 6 (front: 2).
2 | network_0/router_level3_1 |   No output VC allocated.
2 | network_0/router_level3_1 | Completed VC allocation for VC 0 at input 7 (front: 3).
2 | network_0/router_level3_1 |   Acquiring assigned VC 0 at output 8.
2 | network_0/router_level3_1/buf_7/vc_0 | Changing state from vc_alloc to active.
2 | network_0/router_level3_2 | Adding flit 4 to VC 0 at input 2 (state: idle, empty).
2 | network_0/router_level3_2 | Using precomputed lookahead routing information for VC 0 at input 2 (front: 4).
2 | network_0/router_level3_2/buf_2/vc_0 | Changing state from idle to vc_alloc.
2 | network_0/router_level3_2 | Adding flit 5 to VC 0 at input 4 (state: idle, empty).
2 | network_0/router_level3_2 | Using precomputed lookahead routing information for VC 0 at input 4 (front: 5).
2 | network_0/router_level3_2/buf_4/vc_0 | Changing state from idle to vc_alloc.
2 | network_0/router_level3_2 | Beginning VC allocation for VC 0 at input 2 (front: 4).
2 | network_0/router_level3_2 |   Requesting VC 0 at output 13 (in_pri: 0, out_pri: 0).
2 | network_0/router_level3_2 |   Requesting VC 1 at output 13 (in_pri: 0, out_pri: 0).
2 | network_0/router_level3_2 |   Requesting VC 2 at output 13 (in_pri: 0, out_pri: 0).
2 | network_0/router_level3_2 |   Requesting VC 3 at output 13 (in_pri: 0, out_pri: 0).
2 | network_0/router_level3_2 | Beginning VC allocation for VC 0 at input 4 (front: 5).
2 | network_0/router_level3_2 |   Requesting VC 0 at output 14 (in_pri: 0, out_pri: 0).
2 | network_0/router_level3_2 |   Requesting VC 1 at output 14 (in_pri: 0, out_pri: 0).
2 | network_0/router_level3_2 |   Requesting VC 2 at output 14 (in_pri: 0, out_pri: 0).
2 | network_0/router_level3_2 |   Requesting VC 3 at output 14 (in_pri: 0, out_pri: 0).
2 | network_0/router_level3_2/vc_allocator | Input requests = [ 8 -> [ 52@0 53@0 54@0 55@0 ]  16 -> [ 56@0 57@0 58@0 59@0 ]  ], output requests = [ 52 -> [ 8@0 ]  53 -> [ 8@0 ]  54 -> [ 8@0 ]  55 -> [ 8@0 ]  56 -> [ 16@0 ]  57 -> [ 16@0 ]  58 -> [ 16@0 ]  59 -> [ 16@0 ]  ].
2 | network_0/router_level3_2/vc_allocator | Input grants = [ 8 -> 52  16 -> 56  ], output grants = [ 52 -> 8  56 -> 16  ].
2 | network_0/router_level3_2 | Assigning VC 0 at output 13 to VC 0 at input 2.
2 | network_0/router_level3_2 | Assigning VC 0 at output 14 to VC 0 at input 4.
2 | network_0/router_level3_2 | Completed VC allocation for VC 0 at input 2 (front: 4).
2 | network_0/router_level3_2 |   Acquiring assigned VC 0 at output 13.
2 | network_0/router_level3_2/buf_2/vc_0 | Changing state from vc_alloc to active.
2 | network_0/router_level3_2 | Completed VC allocation for VC 0 at input 4 (front: 5).
2 | network_0/router_level3_2 |   Acquiring assigned VC 0 at output 14.
2 | network_0/router_level3_2/buf_4/vc_0 | Changing state from vc_alloc to active.
2 | network_0/router_level3_3 | Adding flit 6 to VC 0 at input 7 (state: idle, empty).
2 | network_0/router_level3_3 | Using precomputed lookahead routing information for VC 0 at input 7 (front: 6).
2 | network_0/router_level3_3/buf_7/vc_0 | Changing state from idle to vc_alloc.
2 | network_0/router_level3_3 | Beginning VC allocation for VC 0 at input 7 (front: 6).
2 | network_0/router_level3_3 |   Requesting VC 0 at output 9 (in_pri: 0, out_pri: 0).
2 | network_0/router_level3_3 |   Requesting VC 1 at output 9 (in_pri: 0, out_pri: 0).
2 | network_0/router_level3_3 |   Requesting VC 2 at output 9 (in_pri: 0, out_pri: 0).
2 | network_0/router_level3_3 |   Requesting VC 3 at output 9 (in_pri: 0, out_pri: 0).
2 | network_0/router_level3_3/vc_allocator | Input requests = [ 28 -> [ 36@0 37@0 38@0 39@0 ]  ], output requests = [ 36 -> [ 28@0 ]  37 -> [ 28@0 ]  38 -> [ 28@0 ]  39 -> [ 28@0 ]  ].
2 | network_0/router_level3_3/vc_allocator | Input grants = [ 28 -> 36  ], output grants = [ 36 -> 28  ].
2 | network_0/router_level3_3 | Assigning VC 0 at output 9 to VC 0 at input 7.
2 | network_0/router_level3_3 | Completed VC allocation for VC 0 at input 7 (front: 6).
2 | network_0/router_level3_3 |   Acquiring assigned VC 0 at output 9.
2 | network_0/router_level3_3/buf_7/vc_0 | Changing state from vc_alloc to active.
2 | network_0/router_level3_4 | Adding flit 7 to VC 0 at input 2 (state: idle, empty).
2 | network_0/router_level3_4 | Using precomputed lookahead routing information for VC 0 at input 2 (front: 7).
2 | network_0/router_level3_4/buf_2/vc_0 | Changing state from idle to vc_alloc.
2 | network_0/router_level3_4 | Beginning VC allocation for VC 0 at input 2 (front: 7).
2 | network_0/router_level3_4 |   Requesting VC 0 at output 11 (in_pri: 0, out_pri: 0).
2 | network_0/router_level3_4 |   Requesting VC 1 at output 11 (in_pri: 0, out_pri: 0).
2 | network_0/router_level3_4 |   Requesting VC 2 at output 11 (in_pri: 0, out_pri: 0).
2 | network_0/router_level3_4 |   Requesting VC 3 at output 11 (in_pri: 0, out_pri: 0).
2 | network_0/router_level3_4/vc_allocator | Input requests = [ 8 -> [ 44@0 45@0 46@0 47@0 ]  ], output requests = [ 44 -> [ 8@0 ]  45 -> [ 8@0 ]  46 -> [ 8@0 ]  47 -> [ 8@0 ]  ].
2 | network_0/router_level3_4/vc_allocator | Input grants = [ 8 -> 44  ], output grants = [ 44 -> 8  ].
2 | network_0/router_level3_4 | Assigning VC 0 at output 11 to VC 0 at input 2.
2 | network_0/router_level3_4 | Completed VC allocation for VC 0 at input 2 (front: 7).
2 | network_0/router_level3_4 |   Acquiring assigned VC 0 at output 11.
2 | network_0/router_level3_4/buf_2/vc_0 | Changing state from vc_alloc to active.
2 | network_0/router_level3_5 | Adding flit 8 to VC 0 at input 0 (state: idle, empty).
2 | network_0/router_level3_5 | Using precomputed lookahead routing information for VC 0 at input 0 (front: 8).
2 | network_0/router_level3_5/buf_0/vc_0 | Changing state from idle to vc_alloc.
2 | network_0/router_level3_5 | Adding flit 9 to VC 0 at input 7 (state: idle, empty).
2 | network_0/router_level3_5 | Using precomputed lookahead routing information for VC 0 at input 7 (front: 9).
2 | network_0/router_level3_5/buf_7/vc_0 | Changing state from idle to vc_alloc.
2 | network_0/router_level3_5 | Beginning VC allocation for VC 0 at input 0 (front: 8).
2 | network_0/router_level3_5 |   Requesting VC 0 at output 9 (in_pri: 0, out_pri: 0).
2 | network_0/router_level3_5 |   Requesting VC 1 at output 9 (in_pri: 0, out_pri: 0).
2 | network_0/router_level3_5 |   Requesting VC 2 at output 9 (in_pri: 0, out_pri: 0).
2 | network_0/router_level3_5 |   Requesting VC 3 at output 9 (in_pri: 0, out_pri: 0).
2 | network_0/router_level3_5 | Beginning VC allocation for VC 0 at input 7 (front: 9).
2 | network_0/router_level3_5 |   Requesting VC 0 at output 12 (in_pri: 0, out_pri: 0).
2 | network_0/router_level3_5 |   Requesting VC 1 at output 12 (in_pri: 0, out_pri: 0).
2 | network_0/router_level3_5 |   Requesting VC 2 at output 12 (in_pri: 0, out_pri: 0).
2 | network_0/router_level3_5 |   Requesting VC 3 at output 12 (in_pri: 0, out_pri: 0).
2 | network_0/router_level3_5/vc_allocator | Input requests = [ 0 -> [ 36@0 37@0 38@0 39@0 ]  28 -> [ 48@0 49@0 50@0 51@0 ]  ], output requests = [ 36 -> [ 0@0 ]  37 -> [ 0@0 ]  38 -> [ 0@0 ]  39 -> [ 0@0 ]  48 -> [ 28@0 ]  49 -> [ 28@0 ]  50 -> [ 28@0 ]  51 -> [ 28@0 ]  ].
2 | network_0/router_level3_5/vc_allocator | Input grants = [ 0 -> 36  28 -> 48  ], output grants = [ 36 -> 0  48 -> 28  ].
2 | network_0/router_level3_5 | Assigning VC 0 at output 9 to VC 0 at input 0.
2 | network_0/router_level3_5 | Assigning VC 0 at output 12 to VC 0 at input 7.
2 | network_0/router_level3_5 | Completed VC allocation for VC 0 at input 0 (front: 8).
2 | network_0/router_level3_5 |   Acquiring assigned VC 0 at output 9.
2 | network_0/router_level3_5/buf_0/vc_0 | Changing state from vc_alloc to active.
2 | network_0/router_level3_5 | Completed VC allocation for VC 0 at input 7 (front: 9).
2 | network_0/router_level3_5 |   Acquiring assigned VC 0 at output 12.
2 | network_0/router_level3_5/buf_7/vc_0 | Changing state from vc_alloc to active.
2 | network_0/router_level3_6 | Adding flit 10 to VC 0 at input 5 (state: idle, empty).
2 | network_0/router_level3_6 | Using precomputed lookahead routing information for VC 0 at input 5 (front: 10).
2 | network_0/router_level3_6/buf_5/vc_0 | Changing state from idle to vc_alloc.
2 | network_0/router_level3_6 | Beginning VC allocation for VC 0 at input 5 (front: 10).
2 | network_0/router_level3_6 |   Requesting VC 0 at output 14 (in_pri: 0, out_pri: 0).
2 | network_0/router_level3_6 |   Requesting VC 1 at output 14 (in_pri: 0, out_pri: 0).
2 | network_0/router_level3_6 |   Requesting VC 2 at output 14 (in_pri: 0, out_pri: 0).
2 | network_0/router_level3_6 |   Requesting VC 3 at output 14 (in_pri: 0, out_pri: 0).
2 | network_0/router_level3_6/vc_allocator | Input requests = [ 20 -> [ 56@0 57@0 58@0 59@0 ]  24 -> [ 32@0 33@0 34@0 35@0 ]  28 -> [ 32@0 33@0 34@0 35@0 ]  ], output requests = [ 32 -> [ 24@0 28@0 ]  33 -> [ 24@0 28@0 ]  34 -> [ 24@0 28@0 ]  35 -> [ 24@0 28@0 ]  56 -> [ 20@0 ]  57 -> [ 20@0 ]  58 -> [ 20@0 ]  59 -> [ 20@0 ]  ].
2 | network_0/router_level3_6/vc_allocator | Input grants = [ 20 -> 56  24 -> 32  ], output grants = [ 32 -> 24  56 -> 20  ].
2 | network_0/router_level3_6 | Assigning VC 0 at output 14 to VC 0 at input 5.
2 | network_0/router_level3_6 | Completed VC allocation for VC 0 at input 5 (front: 10).
2 | network_0/router_level3_6 |   Acquiring assigned VC 0 at output 14.
2 | network_0/router_level3_6/buf_5/vc_0 | Changing state from vc_alloc to active.
3 | network_0/router_level3_1 | Beginning VC allocation for VC 0 at input 6 (front: 2).
3 | network_0/router_level3_1 |   VC 0 at output 12 is in use by VC 0 at input 3 (front flit: 0).
3 | network_0/router_level3_1 |   Requesting VC 1 at output 12 (in_pri: 0, out_pri: 0).
3 | network_0/router_level3_1 |   Requesting VC 2 at output 12 (in_pri: 0, out_pri: 0).
3 | network_0/router_level3_1 |   Requesting VC 3 at output 12 (in_pri: 0, out_pri: 0).
3 | network_0/router_level3_1/vc_allocator | Input requests = [ 4 -> [ 44@0 45@0 46@0 47@0 ]  16 -> [ 49@0 50@0 51@0 ]  21 -> [ 60@0 61@0 62@0 63@0 ]  24 -> [ 49@0 50@0 51@0 ]  25 -> [ 49@0 50@0 51@0 ]  ], output requests = [ 44 -> [ 4@0 ]  45 -> [ 4@0 ]  46 -> [ 4@0 ]  47 -> [ 4@0 ]  49 -> [ 16@0 24@0 25@0 ]  50 -> [ 16@0 24@0 25@0 ]  51 -> [ 16@0 24@0 25@0 ]  60 -> [ 21@0 ]  61 -> [ 21@0 ]  62 -> [ 21@0 ]  63 -> [ 21@0 ]  ].
3 | network_0/router_level3_1/vc_allocator | Input grants = [ 4 -> 44  16 -> 49  21 -> 60  ], output grants = [ 44 -> 4  49 -> 16  60 -> 21  ].
3 | network_0/router_level3_1 | VC allocation failed for VC 0 at input 6.
3 | network_0/router_level3_1 | Beginning switch allocation for VC 0 at input 5 (front: 1).
3 | network_0/router_level3_1 |   Requesting output 9.0 (non-spec, pri: 0).
3 | network_0/router_level3_1 | Beginning switch allocation for VC 0 at input 7 (front: 3).
3 | network_0/router_level3_1 |   Requesting output 8.0 (non-spec, pri: 0).
3 | network_0/router_level3_1/sw_allocator | Input requests = [ 3 -> [ 12@0 ]  5 -> [ 9@0 ]  7 -> [ 8@0 ]  ], output requests = [ 8 -> [ 7@0 ]  9 -> [ 5@0 ]  12 -> [ 3@0 ]  ].
3 | network_0/router_level3_1/sw_allocator | Input grants = [ 3 -> 12  5 -> 9  7 -> 8  ], output grants = [ 8 -> 7  9 -> 5  12 -> 3  ].
3 | network_0/router_level3_1 | Assigning output 9.0 to VC 0 at input 5.0.
3 | network_0/router_level3_1 | Assigning output 8.0 to VC 0 at input 7.0.
3 | network_0/router_level3_1 | Completed VC allocation for VC 0 at input 6 (front: 2).
3 | network_0/router_level3_1 |   No output VC allocated.
3 | network_0/router_level3_1 | Completed switch allocation for VC 0 at input 5 (front: 1).
3 | network_0/router_level3_1 |   Scheduling switch connection from input 5.0 to output 9.0.
3 | network_0/router_level3_1 | Updating lookahead routing information for flit 1.
3 | network_0/router_level3_1 | Completed switch allocation for VC 0 at input 7 (front: 3).
3 | network_0/router_level3_1 |   Scheduling switch connection from input 7.0 to output 8.0.
3 | network_0/router_level3_1 | Updating lookahead routing information for flit 3.
3 | network_0/router_level3_2 | Beginning switch allocation for VC 0 at input 2 (front: 4).
3 | network_0/router_level3_2 |   Requesting output 13.0 (non-spec, pri: 0).
3 | network_0/router_level3_2 | Beginning switch allocation for VC 0 at input 4 (front: 5).
3 | network_0/router_level3_2 |   Requesting output 14.0 (non-spec, pri: 0).
3 | network_0/router_level3_2/sw_allocator | Input requests = [ 2 -> [ 13@0 ]  4 -> [ 14@0 ]  ], output requests = [ 13 -> [ 2@0 ]  14 -> [ 4@0 ]  ].
3 | network_0/router_level3_2/sw_allocator | Input grants = [ 2 -> 13  4 -> 14  ], output grants = [ 13 -> 2  14 -> 4  ].
3 | network_0/router_level3_2 | Assigning output 13.0 to VC 0 at input 2.0.
3 | network_0/router_level3_2 | Assigning output 14.0 to VC 0 at input 4.0.
3 | network_0/router_level3_2 | Completed switch allocation for VC 0 at input 2 (front: 4).
3 | network_0/router_level3_2 |   Scheduling switch connection from input 2.0 to output 13.0.
3 | network_0/router_level3_2 | Updating lookahead routing information for flit 4.
3 | network_0/router_level3_2 | Completed switch allocation for VC 0 at input 4 (front: 5).
3 | network_0/router_level3_2 |   Scheduling switch connection from input 4.0 to output 14.0.
3 | network_0/router_level3_2 | Updating lookahead routing information for flit 5.
3 | network_0/router_level3_3 | Beginning switch allocation for VC 0 at input 7 (front: 6).
3 | network_0/router_level3_3 |   Requesting output 9.0 (non-spec, pri: 0).
3 | network_0/router_level3_3/sw_allocator | Input requests = [ 7 -> [ 9@0 ]  ], output requests = [ 9 -> [ 7@0 ]  ].
3 | network_0/router_level3_3/sw_allocator | Input grants = [ 7 -> 9  ], output grants = [ 9 -> 7  ].
3 | network_0/router_level3_3 | Assigning output 9.0 to VC 0 at input 7.0.
3 | network_0/router_level3_3 | Completed switch allocation for VC 0 at input 7 (front: 6).
3 | network_0/router_level3_3 |   Scheduling switch connection from input 7.0 to output 9.0.
3 | network_0/router_level3_3 | Updating lookahead routing information for flit 6.
3 | network_0/router_level3_4 | Beginning switch allocation for VC 0 at input 2 (front: 7).
3 | network_0/router_level3_4 |   Requesting output 11.0 (non-spec, pri: 0).
3 | network_0/router_level3_4/sw_allocator | Input requests = [ 2 -> [ 11@0 ]  ], output requests = [ 11 -> [ 2@0 ]  ].
3 | network_0/router_level3_4/sw_allocator | Input grants = [ 2 -> 11  ], output grants = [ 11 -> 2  ].
3 | network_0/router_level3_4 | Assigning output 11.0 to VC 0 at input 2.0.
3 | network_0/router_level3_4 | Completed switch allocation for VC 0 at input 2 (front: 7).
3 | network_0/router_level3_4 |   Scheduling switch connection from input 2.0 to output 11.0.
3 | network_0/router_level3_4 | Updating lookahead routing information for flit 7.
3 | network_0/router_level3_5 | Beginning switch allocation for VC 0 at input 0 (front: 8).
3 | network_0/router_level3_5 |   Requesting output 9.0 (non-spec, pri: 0).
3 | network_0/router_level3_5 | Beginning switch allocation for VC 0 at input 7 (front: 9).
3 | network_0/router_level3_5 |   Requesting output 12.0 (non-spec, pri: 0).
3 | network_0/router_level3_5/sw_allocator | Input requests = [ 0 -> [ 9@0 ]  7 -> [ 12@0 ]  ], output requests = [ 9 -> [ 0@0 ]  12 -> [ 7@0 ]  ].
3 | network_0/router_level3_5/sw_allocator | Input grants = [ 0 -> 9  7 -> 12  ], output grants = [ 9 -> 0  12 -> 7  ].
3 | network_0/router_level3_5 | Assigning output 9.0 to VC 0 at input 0.0.
3 | network_0/router_level3_5 | Assigning output 12.0 to VC 0 at input 7.0.
3 | network_0/router_level3_5 | Completed switch allocation for VC 0 at input 0 (front: 8).
3 | network_0/router_level3_5 |   Scheduling switch connection from input 0.0 to output 9.0.
3 | network_0/router_level3_5 | Updating lookahead routing information for flit 8.
3 | network_0/router_level3_5 | Completed switch allocation for VC 0 at input 7 (front: 9).
3 | network_0/router_level3_5 |   Scheduling switch connection from input 7.0 to output 12.0.
3 | network_0/router_level3_5 | Updating lookahead routing information for flit 9.
3 | network_0/router_level3_6 | Beginning switch allocation for VC 0 at input 5 (front: 10).
3 | network_0/router_level3_6 |   Requesting output 14.0 (non-spec, pri: 0).
3 | network_0/router_level3_6/sw_allocator | Input requests = [ 5 -> [ 14@0 ]  6 -> [ 8@0 ]  ], output requests = [ 8 -> [ 6@0 ]  14 -> [ 5@0 ]  ].
3 | network_0/router_level3_6/sw_allocator | Input grants = [ 5 -> 14  6 -> 8  ], output grants = [ 8 -> 6  14 -> 5  ].
3 | network_0/router_level3_6 | Assigning output 14.0 to VC 0 at input 5.0.
3 | network_0/router_level3_6 | Completed switch allocation for VC 0 at input 5 (front: 10).
3 | network_0/router_level3_6 |   Scheduling switch connection from input 5.0 to output 14.0.
3 | network_0/router_level3_6 | Updating lookahead routing information for flit 10.
4 | network_0/router_level3_1 | Beginning VC allocation for VC 0 at input 6 (front: 2).
4 | network_0/router_level3_1 |   Requesting VC 0 at output 12 (in_pri: 0, out_pri: 0).
4 | network_0/router_level3_1 |   VC 1 at output 12 is in use by VC 0 at input 4 (front flit: 1166).
4 | network_0/router_level3_1 |   Requesting VC 2 at output 12 (in_pri: 0, out_pri: 0).
4 | network_0/router_level3_1 |   Requesting VC 3 at output 12 (in_pri: 0, out_pri: 0).
4 | network_0/router_level3_1/vc_allocator | Input requests = [ 5 -> [ 40@0 41@0 42@0 43@0 ]  22 -> [ 32@0 33@0 34@0 35@0 ]  24 -> [ 48@0 50@0 51@0 ]  25 -> [ 48@0 50@0 51@0 ]  ], output requests = [ 32 -> [ 22@0 ]  33 -> [ 22@0 ]  34 -> [ 22@0 ]  35 -> [ 22@0 ]  40 -> [ 5@0 ]  41 -> [ 5@0 ]  42 -> [ 5@0 ]  43 -> [ 5@0 ]  48 -> [ 24@0 25@0 ]  50 -> [ 24@0 25@0 ]  51 -> [ 24@0 25@0 ]  ].
4 | network_0/router_level3_1/vc_allocator | Input grants = [ 5 -> 40  22 -> 32  24 -> 48  ], output grants = [ 32 -> 22  40 -> 5  48 -> 24  ].
4 | network_0/router_level3_1 | Assigning VC 0 at output 12 to VC 0 at input 6.
4 | network_0/router_level3_1 | Beginning crossbar traversal for flit 1 from input 5.0 to output 9.0.
4 | network_0/router_level3_1 | Beginning crossbar traversal for flit 3 from input 7.0 to output 8.0.
4 | network_0/router_level3_1 | Completed VC allocation for VC 0 at input 6 (front: 2).
4 | network_0/router_level3_1 |   Acquiring assigned VC 0 at output 12.
4 | network_0/router_level3_1/buf_6/vc_0 | Changing state from vc_alloc to active.
4 | network_0/router_level3_1 | Completed crossbar traversal for flit 1 from input 5.0 to output 9.0.
4 | network_0/router_level3_1 | Buffering flit 1 at output 9.
4 | network_0/router_level3_1 | Completed crossbar traversal for flit 3 from input 7.0 to output 8.0.
4 | network_0/router_level3_1 | Buffering flit 3 at output 8.
4 | network_0/router_level3_2 | Beginning crossbar traversal for flit 4 from input 2.0 to output 13.0.
4 | network_0/router_level3_2 | Beginning crossbar traversal for flit 5 from input 4.0 to output 14.0.
4 | network_0/router_level3_2 | Completed crossbar traversal for flit 4 from input 2.0 to output 13.0.
4 | network_0/router_level3_2 | Buffering flit 4 at output 13.
4 | network_0/router_level3_2 | Completed crossbar traversal for flit 5 from input 4.0 to output 14.0.
4 | network_0/router_level3_2 | Buffering flit 5 at output 14.
4 | network_0/router_level3_3 | Beginning crossbar traversal for flit 6 from input 7.0 to output 9.0.
4 | network_0/router_level3_3 | Completed crossbar traversal for flit 6 from input 7.0 to output 9.0.
4 | network_0/router_level3_3 | Buffering flit 6 at output 9.
4 | network_0/router_level3_4 | Beginning crossbar traversal for flit 7 from input 2.0 to output 11.0.
4 | network_0/router_level3_4 | Completed crossbar traversal for flit 7 from input 2.0 to output 11.0.
4 | network_0/router_level3_4 | Buffering flit 7 at output 11.
4 | network_0/router_level3_5 | Beginning crossbar traversal for flit 8 from input 0.0 to output 9.0.
4 | network_0/router_level3_5 | Beginning crossbar traversal for flit 9 from input 7.0 to output 12.0.
4 | network_0/router_level3_5 | Completed crossbar traversal for flit 8 from input 0.0 to output 9.0.
4 | network_0/router_level3_5 | Buffering flit 8 at output 9.
4 | network_0/router_level3_5 | Completed crossbar traversal for flit 9 from input 7.0 to output 12.0.
4 | network_0/router_level3_5 | Buffering flit 9 at output 12.
4 | network_0/router_level3_6 | Beginning crossbar traversal for flit 10 from input 5.0 to output 14.0.
4 | network_0/router_level3_6 | Completed crossbar traversal for flit 10 from input 5.0 to output 14.0.
4 | network_0/router_level3_6 | Buffering flit 10 at output 14.
4 | network_0/router_level3_1 | Sending flit 3 to channel at output 8.
4 | network_0/router_level3_1 | Sending flit 1 to channel at output 9.
4 | network_0/router_level3_2 | Sending flit 4 to channel at output 13.
4 | network_0/router_level3_2 | Sending flit 5 to channel at output 14.
4 | network_0/router_level3_3 | Sending flit 6 to channel at output 9.
4 | network_0/router_level3_4 | Sending flit 7 to channel at output 11.
4 | network_0/router_level3_5 | Sending flit 8 to channel at output 9.
4 | network_0/router_level3_5 | Sending flit 9 to channel at output 12.
4 | network_0/router_level3_6 | Sending flit 10 to channel at output 14.
5 | network_0/network_0_fchan_20488 | Beginning channel traversal for flit 3 with delay 1.
5 | network_0/network_0_fchan_20489 | Beginning channel traversal for flit 1 with delay 1.
5 | network_0/network_0_fchan_20501 | Beginning channel traversal for flit 4 with delay 1.
5 | network_0/network_0_fchan_20502 | Beginning channel traversal for flit 5 with delay 1.
5 | network_0/network_0_fchan_20505 | Beginning channel traversal for flit 6 with delay 1.
5 | network_0/network_0_fchan_20515 | Beginning channel traversal for flit 7 with delay 1.
5 | network_0/network_0_fchan_20521 | Beginning channel traversal for flit 8 with delay 1.
5 | network_0/network_0_fchan_20524 | Beginning channel traversal for flit 9 with delay 1.
5 | network_0/network_0_fchan_20534 | Beginning channel traversal for flit 10 with delay 1.
5 | network_0/router_level3_1 | Beginning switch allocation for VC 0 at input 6 (front: 2).
5 | network_0/router_level3_1 |   Requesting output 12.0 (non-spec, pri: 0).
5 | network_0/router_level3_1/sw_allocator | Input requests = [ 1 -> [ 10@0 ]  5 -> [ 8@0 ]  6 -> [ 12@0 ]  ], output requests = [ 8 -> [ 5@0 ]  10 -> [ 1@0 ]  12 -> [ 6@0 ]  ].
5 | network_0/router_level3_1/sw_allocator | Input grants = [ 1 -> 10  5 -> 8  6 -> 12  ], output grants = [ 8 -> 5  10 -> 1  12 -> 6  ].
5 | network_0/router_level3_1 | Assigning output 12.0 to VC 0 at input 6.0.
5 | network_0/router_level3_1 | Completed switch allocation for VC 0 at input 6 (front: 2).
5 | network_0/router_level3_1 |   Scheduling switch connection from input 6.0 to output 12.0.
5 | network_0/router_level3_1 | Updating lookahead routing information for flit 2.
5 | network_0/network_0_fchan_20488 | Completed channel traversal for flit 3.
5 | network_0/network_0_fchan_20489 | Completed channel traversal for flit 1.
5 | network_0/network_0_fchan_20501 | Completed channel traversal for flit 4.
5 | network_0/network_0_fchan_20502 | Completed channel traversal for flit 5.
5 | network_0/network_0_fchan_20505 | Completed channel traversal for flit 6.
5 | network_0/network_0_fchan_20515 | Completed channel traversal for flit 7.
5 | network_0/network_0_fchan_20521 | Completed channel traversal for flit 8.
5 | network_0/network_0_fchan_20524 | Completed channel traversal for flit 9.
5 | network_0/network_0_fchan_20534 | Completed channel traversal for flit 10.
6 | network_0/router_level2_0 | Received flit 3 from channel at input 1.
6 | network_0/router_level2_1 | Received flit 1 from channel at input 1.
6 | network_0/router_level2_1 | Received flit 6 from channel at input 3.
6 | network_0/router_level2_1 | Received flit 8 from channel at input 5.
6 | network_0/router_level2_3 | Received flit 7 from channel at input 4.
6 | network_0/router_level2_4 | Received flit 9 from channel at input 5.
6 | network_0/router_level2_5 | Received flit 4 from channel at input 2.
6 | network_0/router_level2_6 | Received flit 5 from channel at input 2.
6 | network_0/router_level2_6 | Received flit 10 from channel at input 6.
6 | network_0/router_level2_0 | Adding flit 3 to VC 0 at input 1 (state: idle, empty).
6 | network_0/router_level2_0 | Using precomputed lookahead routing information for VC 0 at input 1 (front: 3).
6 | network_0/router_level2_0/buf_1/vc_0 | Changing state from idle to vc_alloc.
6 | network_0/router_level2_0 | Beginning VC allocation for VC 0 at input 1 (front: 3).
6 | network_0/router_level2_0 |   Requesting VC 0 at output 15 (in_pri: 0, out_pri: 0).
6 | network_0/router_level2_0 |   Requesting VC 1 at output 15 (in_pri: 0, out_pri: 0).
6 | network_0/router_level2_0 |   Requesting VC 2 at output 15 (in_pri: 0, out_pri: 0).
6 | network_0/router_level2_0 |   Requesting VC 3 at output 15 (in_pri: 0, out_pri: 0).
6 | network_0/router_level2_0/vc_allocator | Input requests = [ 4 -> [ 60@0 61@0 62@0 63@0 ]  24 -> [ 44@0 45@0 46@0 47@0 ]  ], output requests = [ 44 -> [ 24@0 ]  45 -> [ 24@0 ]  46 -> [ 24@0 ]  47 -> [ 24@0 ]  60 -> [ 4@0 ]  61 -> [ 4@0 ]  62 -> [ 4@0 ]  63 -> [ 4@0 ]  ].
6 | network_0/router_level2_0/vc_allocator | Input grants = [ 4 -> 60  24 -> 44  ], output grants = [ 44 -> 24  60 -> 4  ].
6 | network_0/router_level2_0 | Assigning VC 0 at output 15 to VC 0 at input 1.
6 | network_0/router_level2_0 | Completed VC allocation for VC 0 at input 1 (front: 3).
6 | network_0/router_level2_0 |   Acquiring assigned VC 0 at output 15.
6 | network_0/router_level2_0/buf_1/vc_0 | Changing state from vc_alloc to active.
6 | network_0/router_level2_1 | Adding flit 1 to VC 0 at input 1 (state: idle, empty).
6 | network_0/router_level2_1 | Using precomputed lookahead routing information for VC 0 at input 1 (front: 1).
6 | network_0/router_level2_1/buf_1/vc_0 | Changing state from idle to vc_alloc.
6 | network_0/router_level2_1 | Adding flit 6 to VC 0 at input 3 (state: idle, empty).
6 | network_0/router_level2_1 | Using precomputed lookahead routing information for VC 0 at input 3 (front: 6).
6 | network_0/router_level2_1/buf_3/vc_0 | Changing state from idle to vc_alloc.
6 | network_0/router_level2_1 | Adding flit 8 to VC 0 at input 5 (state: idle, empty).
6 | network_0/router_level2_1 | Using precomputed lookahead routing information for VC 0 at input 5 (front: 8).
6 | network_0/router_level2_1/buf_5/vc_0 | Changing state from idle to vc_alloc.
6 | network_0/router_level2_1 | Beginning VC allocation for VC 0 at input 1 (front: 1).
6 | network_0/router_level2_1 |   Requesting VC 0 at output 8 (in_pri: 0, out_pri: 0).
6 | network_0/router_level2_1 |   Requesting VC 1 at output 8 (in_pri: 0, out_pri: 0).
6 | network_0/router_level2_1 |   Requesting VC 2 at output 8 (in_pri: 0, out_pri: 0).
6 | network_0/router_level2_1 |   Requesting VC 3 at output 8 (in_pri: 0, out_pri: 0).
6 | network_0/router_level2_1 | Beginning VC allocation for VC 0 at input 3 (front: 6).
6 | network_0/router_level2_1 |   Requesting VC 0 at output 10 (in_pri: 0, out_pri: 0).
6 | network_0/router_level2_1 |   Requesting VC 1 at output 10 (in_pri: 0, out_pri: 0).
6 | network_0/router_level2_1 |   Requesting VC 2 at output 10 (in_pri: 0, out_pri: 0).
6 | network_0/router_level2_1 |   Requesting VC 3 at output 10 (in_pri: 0, out_pri: 0).
6 | network_0/router_level2_1 | Beginning VC allocation for VC 0 at input 5 (front: 8).
6 | network_0/router_level2_1 |   Requesting VC 0 at output 15 (in_pri: 0, out_pri: 0).
6 | network_0/router_level2_1 |   Requesting VC 1 at output 15 (in_pri: 0, out_pri: 0).
6 | network_0/router_level2_1 |   Requesting VC 2 at output 15 (in_pri: 0, out_pri: 0).
6 | network_0/router_level2_1 |   Requesting VC 3 at output 15 (in_pri: 0, out_pri: 0).
6 | network_0/router_level2_1/vc_allocator | Input requests = [ 4 -> [ 32@0 33@0 34@0 35@0 ]  12 -> [ 40@0 41@0 42@0 43@0 ]  20 -> [ 60@0 61@0 62@0 63@0 ]  ], output requests = [ 32 -> [ 4@0 ]  33 -> [ 4@0 ]  34 -> [ 4@0 ]  35 -> [ 4@0 ]  40 -> [ 12@0 ]  41 -> [ 12@0 ]  42 -> [ 12@0 ]  43 -> [ 12@0 ]  60 -> [ 20@0 ]  61 -> [ 20@0 ]  62 -> [ 20@0 ]  63 -> [ 20@0 ]  ].
6 | network_0/router_level2_1/vc_allocator | Input grants = [ 4 -> 32  12 -> 40  20 -> 60  ], output grants = [ 32 -> 4  40 -> 12  60 -> 20  ].
6 | network_0/router_level2_1 | Assigning VC 0 at output 8 to VC 0 at input 1.
6 | network_0/router_level2_1 | Assigning VC 0 at output 10 to VC 0 at input 3.
6 | network_0/router_level2_1 | Assigning VC 0 at output 15 to VC 0 at input 5.
6 | network_0/router_level2_1 | Completed VC allocation for VC 0 at input 1 (front: 1).
6 | network_0/router_level2_1 |   Acquiring assigned VC 0 at output 8.
6 | network_0/router_level2_1/buf_1/vc_0 | Changing state from vc_alloc to active.
6 | network_0/router_level2_1 | Completed VC allocation for VC 0 at input 3 (front: 6).
6 | network_0/router_level2_1 |   Acquiring assigned VC 0 at output 10.
6 | network_0/router_level2_1/buf_3/vc_0 | Changing state from vc_alloc to active.
6 | network_0/router_level2_1 | Completed VC allocation for VC 0 at input 5 (front: 8).
6 | network_0/router_level2_1 |   Acquiring assigned VC 0 at output 15.
6 | network_0/router_level2_1/buf_5/vc_0 | Changing state from vc_alloc to active.
6 | network_0/router_level2_3 | Adding flit 7 to VC 0 at input 4 (state: idle, empty).
6 | network_0/router_level2_3 | Using precomputed lookahead routing information for VC 0 at input 4 (front: 7).
6 | network_0/router_level2_3/buf_4/vc_0 | Changing state from idle to vc_alloc.
6 | network_0/router_level2_3 | Beginning VC allocation for VC 0 at input 4 (front: 7).
6 | network_0/router_level2_3 |   Requesting VC 0 at output 11 (in_pri: 0, out_pri: 0).
6 | network_0/router_level2_3 |   Requesting VC 1 at output 11 (in_pri: 0, out_pri: 0).
6 | network_0/router_level2_3 |   Requesting VC 2 at output 11 (in_pri: 0, out_pri: 0).
6 | network_0/router_level2_3 |   Requesting VC 3 at output 11 (in_pri: 0, out_pri: 0).
6 | network_0/router_level2_3/vc_allocator | Input requests = [ 16 -> [ 44@0 45@0 46@0 47@0 ]  ], output requests = [ 44 -> [ 16@0 ]  45 -> [ 16@0 ]  46 -> [ 16@0 ]  47 -> [ 16@0 ]  ].
6 | network_0/router_level2_3/vc_allocator | Input grants = [ 16 -> 44  ], output grants = [ 44 -> 16  ].
6 | network_0/router_level2_3 | Assigning VC 0 at output 11 to VC 0 at input 4.
6 | network_0/router_level2_3 | Completed VC allocation for VC 0 at input 4 (front: 7).
6 | network_0/router_level2_3 |   Acquiring assigned VC 0 at output 11.
6 | network_0/router_level2_3/buf_4/vc_0 | Changing state from vc_alloc to active.
6 | network_0/router_level2_4 | Adding flit 9 to VC 0 at input 5 (state: idle, empty).
6 | network_0/router_level2_4 | Using precomputed lookahead routing information for VC 0 at input 5 (front: 9).
6 | network_0/router_level2_4/buf_5/vc_0 | Changing state from idle to vc_alloc.
6 | network_0/router_level2_4 | Beginning VC allocation for VC 0 at input 5 (front: 9).
6 | network_0/router_level2_4 |   Requesting VC 0 at output 12 (in_pri: 0, out_pri: 0).
6 | network_0/router_level2_4 |   Requesting VC 1 at output 12 (in_pri: 0, out_pri: 0).
6 | network_0/router_level2_4 |   Requesting VC 2 at output 12 (in_pri: 0, out_pri: 0).
6 | network_0/router_level2_4 |   Requesting VC 3 at output 12 (in_pri: 0, out_pri: 0).
6 | network_0/router_level2_4/vc_allocator | Input requests = [ 4 -> [ 44@0 45@0 46@0 47@0 ]  20 -> [ 48@0 49@0 50@0 51@0 ]  ], output requests = [ 44 -> [ 4@0 ]  45 -> [ 4@0 ]  46 -> [ 4@0 ]  47 -> [ 4@0 ]  48 -> [ 20@0 ]  49 -> [ 20@0 ]  50 -> [ 20@0 ]  51 -> [ 20@0 ]  ].
6 | network_0/router_level2_4/vc_allocator | Input grants = [ 4 -> 44  20 -> 48  ], output grants = [ 44 -> 4  48 -> 20  ].
6 | network_0/router_level2_4 | Assigning VC 0 at output 12 to VC 0 at input 5.
6 | network_0/router_level2_4 | Completed VC allocation for VC 0 at input 5 (front: 9).
6 | network_0/router_level2_4 |   Acquiring assigned VC 0 at output 12.
6 | network_0/router_level2_4/buf_5/vc_0 | Changing state from vc_alloc to active.
6 | network_0/router_level2_5 | Adding flit 4 to VC 0 at input 2 (state: idle, empty).
6 | network_0/router_level2_5 | Using precomputed lookahead routing information for VC 0 at input 2 (front: 4).
6 | network_0/router_level2_5/buf_2/vc_0 | Changing state from idle to vc_alloc.
6 | network_0/router_level2_5 | Beginning VC allocation for VC 0 at input 2 (front: 4).
6 | network_0/router_level2_5 |   Requesting VC 0 at output 14 (in_pri: 0, out_pri: 0).
6 | network_0/router_level2_5 |   Requesting VC 1 at output 14 (in_pri: 0, out_pri: 0).
6 | network_0/router_level2_5 |   Requesting VC 2 at output 14 (in_pri: 0, out_pri: 0).
6 | network_0/router_level2_5 |   Requesting VC 3 at output 14 (in_pri: 0, out_pri: 0).
6 | network_0/router_level2_5/vc_allocator | Input requests = [ 8 -> [ 56@0 57@0 58@0 59@0 ]  28 -> [ 36@0 37@0 38@0 39@0 ]  ], output requests = [ 36 -> [ 28@0 ]  37 -> [ 28@0 ]  38 -> [ 28@0 ]  39 -> [ 28@0 ]  56 -> [ 8@0 ]  57 -> [ 8@0 ]  58 -> [ 8@0 ]  59 -> [ 8@0 ]  ].
6 | network_0/router_level2_5/vc_allocator | Input grants = [ 8 -> 56  28 -> 36  ], output grants = [ 36 -> 28  56 -> 8  ].
6 | network_0/router_level2_5 | Assigning VC 0 at output 14 to VC 0 at input 2.
6 | network_0/router_level2_5 | Completed VC allocation for VC 0 at input 2 (front: 4).
6 | network_0/router_level2_5 |   Acquiring assigned VC 0 at output 14.
6 | network_0/router_level2_5/buf_2/vc_0 | Changing state from vc_alloc to active.
6 | network_0/router_level2_6 | Adding flit 5 to VC 0 at input 2 (state: idle, empty).
6 | network_0/router_level2_6 | Using precomputed lookahead routing information for VC 0 at input 2 (front: 5).
6 | network_0/router_level2_6/buf_2/vc_0 | Changing state from idle to vc_alloc.
6 | network_0/router_level2_6 | Adding flit 10 to VC 0 at input 6 (state: idle, empty).
6 | network_0/router_level2_6 | Using precomputed lookahead routing information for VC 0 at input 6 (front: 10).
6 | network_0/router_level2_6/buf_6/vc_0 | Changing state from idle to vc_alloc.
6 | network_0/router_level2_6 | Beginning VC allocation for VC 0 at input 2 (front: 5).
6 | network_0/router_level2_6 |   Requesting VC 0 at output 8 (in_pri: 0, out_pri: 0).
6 | network_0/router_level2_6 |   Requesting VC 1 at output 8 (in_pri: 0, out_pri: 0).
6 | network_0/router_level2_6 |   Requesting VC 2 at output 8 (in_pri: 0, out_pri: 0).
6 | network_0/router_level2_6 |   Requesting VC 3 at output 8 (in_pri: 0, out_pri: 0).
6 | network_0/router_level2_6 | Beginning VC allocation for VC 0 at input 6 (front: 10).
6 | network_0/router_level2_6 |   Requesting VC 0 at output 8 (in_pri: 0, out_pri: 0).
6 | network_0/router_level2_6 |   Requesting VC 1 at output 8 (in_pri: 0, out_pri: 0).
6 | network_0/router_level2_6 |   Requesting VC 2 at output 8 (in_pri: 0, out_pri: 0).
6 | network_0/router_level2_6 |   Requesting VC 3 at output 8 (in_pri: 0, out_pri: 0).
6 | network_0/router_level2_6/vc_allocator | Input requests = [ 8 -> [ 32@0 33@0 34@0 35@0 ]  24 -> [ 32@0 33@0 34@0 35@0 ]  28 -> [ 40@0 41@0 42@0 43@0 ]  ], output requests = [ 32 -> [ 8@0 24@0 ]  33 -> [ 8@0 24@0 ]  34 -> [ 8@0 24@0 ]  35 -> [ 8@0 24@0 ]  40 -> [ 28@0 ]  41 -> [ 28@0 ]  42 -> [ 28@0 ]  43 -> [ 28@0 ]  ].
6 | network_0/router_level2_6/vc_allocator | Input grants = [ 8 -> 32  28 -> 40  ], output grants = [ 32 -> 8  40 -> 28  ].
6 | network_0/router_level2_6 | Assigning VC 0 at output 8 to VC 0 at input 2.
6 | network_0/router_level2_6 | VC allocation failed for VC 0 at input 6.
6 | network_0/router_level2_6 | Completed VC allocation for VC 0 at input 2 (front: 5).
6 | network_0/router_level2_6 |   Acquiring assigned VC 0 at output 8.
6 | network_0/router_level2_6/buf_2/vc_0 | Changing state from vc_alloc to active.
6 | network_0/router_level2_6 | Completed VC allocation for VC 0 at input 6 (front: 10).
6 | network_0/router_level2_6 |   No output VC allocated.
6 | network_0/router_level3_1 | Beginning crossbar traversal for flit 2 from input 6.0 to output 12.0.
6 | network_0/router_level3_1 | Completed crossbar traversal for flit 2 from input 6.0 to output 12.0.
6 | network_0/router_level3_1 | Buffering flit 2 at output 12.
6 | network_0/router_level3_1 | Sending flit 2 to channel at output 12.
7 | network_0/network_0_fchan_20492 | Beginning channel traversal for flit 2 with delay 1.
7 | network_0/router_level2_0 | Beginning switch allocation for VC 0 at input 1 (front: 3).
7 | network_0/router_level2_0 |   Requesting output 15.0 (non-spec, pri: 0).
7 | network_0/router_level2_0/sw_allocator | Input requests = [ 1 -> [ 15@0 ]  6 -> [ 11@0 ]  ], output requests = [ 11 -> [ 6@0 ]  15 -> [ 1@0 ]  ].
7 | network_0/router_level2_0/sw_allocator | Input grants = [ 1 -> 15  6 -> 11  ], output grants = [ 11 -> 6  15 -> 1  ].
7 | network_0/router_level2_0 | Assigning output 15.0 to VC 0 at input 1.0.
7 | network_0/router_level2_0 | Completed switch allocation for VC 0 at input 1 (front: 3).
7 | network_0/router_level2_0 |   Scheduling switch connection from input 1.0 to output 15.0.
7 | network_0/router_level2_0 | Updating lookahead routing information for flit 3.
7 | network_0/router_level2_1 | Beginning switch allocation for VC 0 at input 1 (front: 1).
7 | network_0/router_level2_1 |   Requesting output 8.0 (non-spec, pri: 0).
7 | network_0/router_level2_1 | Beginning switch allocation for VC 0 at input 3 (front: 6).
7 | network_0/router_level2_1 |   Requesting output 10.0 (non-spec, pri: 0).
7 | network_0/router_level2_1 | Beginning switch allocation for VC 0 at input 5 (front: 8).
7 | network_0/router_level2_1 |   Requesting output 15.0 (non-spec, pri: 0).
7 | network_0/router_level2_1/sw_allocator | Input requests = [ 1 -> [ 8@0 ]  3 -> [ 10@0 ]  5 -> [ 15@0 ]  ], output requests = [ 8 -> [ 1@0 ]  10 -> [ 3@0 ]  15 -> [ 5@0 ]  ].
7 | network_0/router_level2_1/sw_allocator | Input grants = [ 1 -> 8  3 -> 10  5 -> 15  ], output grants = [ 8 -> 1  10 -> 3  15 -> 5  ].
7 | network_0/router_level2_1 | Assigning output 8.0 to VC 0 at input 1.0.
7 | network_0/router_level2_1 | Assigning output 10.0 to VC 0 at input 3.0.
7 | network_0/router_level2_1 | Assigning output 15.0 to VC 0 at input 5.0.
7 | network_0/router_level2_1 | Completed switch allocation for VC 0 at input 1 (front: 1).
7 | network_0/router_level2_1 |   Scheduling switch connection from input 1.0 to output 8.0.
7 | network_0/router_level2_1 | Updating lookahead routing information for flit 1.
7 | network_0/router_level2_1 | Completed switch allocation for VC 0 at input 3 (front: 6).
7 | network_0/router_level2_1 |   Scheduling switch connection from input 3.0 to output 10.0.
7 | network_0/router_level2_1 | Updating lookahead routing information for flit 6.
7 | network_0/router_level2_1 | Completed switch allocation for VC 0 at input 5 (front: 8).
7 | network_0/router_level2_1 |   Scheduling switch connection from input 5.0 to output 15.0.
7 | network_0/router_level2_1 | Updating lookahead routing information for flit 8.
7 | network_0/router_level2_3 | Beginning switch allocation for VC 0 at input 4 (front: 7).
7 | network_0/router_level2_3 |   Requesting output 11.0 (non-spec, pri: 0).
7 | network_0/router_level2_3/sw_allocator | Input requests = [ 4 -> [ 11@0 ]  ], output requests = [ 11 -> [ 4@0 ]  ].
7 | network_0/router_level2_3/sw_allocator | Input grants = [ 4 -> 11  ], output grants = [ 11 -> 4  ].
7 | network_0/router_level2_3 | Assigning output 11.0 to VC 0 at input 4.0.
7 | network_0/router_level2_3 | Completed switch allocation for VC 0 at input 4 (front: 7).
7 | network_0/router_level2_3 |   Scheduling switch connection from input 4.0 to output 11.0.
7 | network_0/router_level2_3 | Updating lookahead routing information for flit 7.
7 | network_0/router_level2_4 | Beginning switch allocation for VC 0 at input 5 (front: 9).
7 | network_0/router_level2_4 |   Requesting output 12.0 (non-spec, pri: 0).
7 | network_0/router_level2_4/sw_allocator | Input requests = [ 1 -> [ 11@0 ]  5 -> [ 12@0 ]  ], output requests = [ 11 -> [ 1@0 ]  12 -> [ 5@0 ]  ].
7 | network_0/router_level2_4/sw_allocator | Input grants = [ 1 -> 11  5 -> 12  ], output grants = [ 11 -> 1  12 -> 5  ].
7 | network_0/router_level2_4 | Assigning output 12.0 to VC 0 at input 5.0.
7 | network_0/router_level2_4 | Completed switch allocation for VC 0 at input 5 (front: 9).
7 | network_0/router_level2_4 |   Scheduling switch connection from input 5.0 to output 12.0.
7 | network_0/router_level2_4 | Updating lookahead routing information for flit 9.
7 | network_0/router_level2_5 | Beginning switch allocation for VC 0 at input 2 (front: 4).
7 | network_0/router_level2_5 |   Requesting output 14.0 (non-spec, pri: 0).
7 | network_0/router_level2_5/sw_allocator | Input requests = [ 2 -> [ 14@0 ]  7 -> [ 9@0 ]  ], output requests = [ 9 -> [ 7@0 ]  14 -> [ 2@0 ]  ].
7 | network_0/router_level2_5/sw_allocator | Input grants = [ 2 -> 14  7 -> 9  ], output grants = [ 9 -> 7  14 -> 2  ].
7 | network_0/router_level2_5 | Assigning output 14.0 to VC 0 at input 2.0.
7 | network_0/router_level2_5 | Completed switch allocation for VC 0 at input 2 (front: 4).
7 | network_0/router_level2_5 |   Scheduling switch connection from input 2.0 to output 14.0.
7 | network_0/router_level2_5 | Updating lookahead routing information for flit 4.
7 | network_0/router_level2_6 | Beginning VC allocation for VC 0 at input 6 (front: 10).
7 | network_0/router_level2_6 |   VC 0 at output 8 is in use by VC 0 at input 2 (front flit: 5).
7 | network_0/router_level2_6 |   Requesting VC 1 at output 8 (in_pri: 0, out_pri: 0).
7 | network_0/router_level2_6 |   Requesting VC 2 at output 8 (in_pri: 0, out_pri: 0).
7 | network_0/router_level2_6 |   Requesting VC 3 at output 8 (in_pri: 0, out_pri: 0).
7 | network_0/router_level2_6/vc_allocator | Input requests = [ 24 -> [ 33@0 34@0 35@0 ]  ], output requests = [ 33 -> [ 24@0 ]  34 -> [ 24@0 ]  35 -> [ 24@0 ]  ].
7 | network_0/router_level2_6/vc_allocator | Input grants = [ 24 -> 33  ], output grants = [ 33 -> 24  ].
7 | network_0/router_level2_6 | Assigning VC 1 at output 8 to VC 0 at input 6.
7 | network_0/router_level2_6 | Beginning switch allocation for VC 0 at input 2 (front: 5).
7 | network_0/router_level2_6 |   Requesting output 8.0 (non-spec, pri: 0).
7 | network_0/router_level2_6/sw_allocator | Input requests = [ 2 -> [ 8@0 ]  7 -> [ 10@0 ]  ], output requests = [ 8 -> [ 2@0 ]  10 -> [ 7@0 ]  ].
7 | network_0/router_level2_6/sw_allocator | Input grants = [ 2 -> 8  7 -> 10  ], output grants = [ 8 -> 2  10 -> 7  ].
7 | network_0/router_level2_6 | Assigning output 8.0 to VC 0 at input 2.0.
7 | network_0/router_level2_6 | Completed VC allocation for VC 0 at input 6 (front: 10).
7 | network_0/router_level2_6 |   Acquiring assigned VC 1 at output 8.
7 | network_0/router_level2_6/buf_6/vc_0 | Changing state from vc_alloc to active.
7 | network_0/router_level2_6 | Completed switch allocation for VC 0 at input 2 (front: 5).
7 | network_0/router_level2_6 |   Scheduling switch connection from input 2.0 to output 8.0.
7 | network_0/router_level2_6 | Updating lookahead routing information for flit 5.
7 | network_0/network_0_fchan_20492 | Completed channel traversal for flit 2.
8 | network_0/router_level2_4 | Received flit 2 from channel at input 1.
8 | network_0/router_level2_0 | Beginning crossbar traversal for flit 3 from input 1.0 to output 15.0.
8 | network_0/router_level2_0 | Completed crossbar traversal for flit 3 from input 1.0 to output 15.0.
8 | network_0/router_level2_0 | Buffering flit 3 at output 15.
8 | network_0/router_level2_1 | Beginning crossbar traversal for flit 1 from input 1.0 to output 8.0.
8 | network_0/router_level2_1 | Beginning crossbar traversal for flit 6 from input 3.0 to output 10.0.
8 | network_0/router_level2_1 | Beginning crossbar traversal for flit 8 from input 5.0 to output 15.0.
8 | network_0/router_level2_1 | Completed crossbar traversal for flit 1 from input 1.0 to output 8.0.
8 | network_0/router_level2_1 | Buffering flit 1 at output 8.
8 | network_0/router_level2_1 | Completed crossbar traversal for flit 6 from input 3.0 to output 10.0.
8 | network_0/router_level2_1 | Buffering flit 6 at output 10.
8 | network_0/router_level2_1 | Completed crossbar traversal for flit 8 from input 5.0 to output 15.0.
8 | network_0/router_level2_1 | Buffering flit 8 at output 15.
8 | network_0/router_level2_3 | Beginning crossbar traversal for flit 7 from input 4.0 to output 11.0.
8 | network_0/router_level2_3 | Completed crossbar traversal for flit 7 from input 4.0 to output 11.0.
8 | network_0/router_level2_3 | Buffering flit 7 at output 11.
8 | network_0/router_level2_4 | Adding flit 2 to VC 0 at input 1 (state: idle, empty).
8 | network_0/router_level2_4 | Using precomputed lookahead routing information for VC 0 at input 1 (front: 2).
8 | network_0/router_level2_4/buf_1/vc_0 | Changing state from idle to vc_alloc.
8 | network_0/router_level2_4 | Beginning VC allocation for VC 0 at input 1 (front: 2).
8 | network_0/router_level2_4 |   Requesting VC 0 at output 14 (in_pri: 0, out_pri: 0).
8 | network_0/router_level2_4 |   Requesting VC 1 at output 14 (in_pri: 0, out_pri: 0).
8 | network_0/router_level2_4 |   Requesting VC 2 at output 14 (in_pri: 0, out_pri: 0).
8 | network_0/router_level2_4 |   Requesting VC 3 at output 14 (in_pri: 0, out_pri: 0).
8 | network_0/router_level2_4/vc_allocator | Input requests = [ 1 -> [ 44@0 46@0 47@0 ]  4 -> [ 56@0 57@0 58@0 59@0 ]  12 -> [ 60@0 61@0 62@0 63@0 ]  ], output requests = [ 44 -> [ 1@0 ]  46 -> [ 1@0 ]  47 -> [ 1@0 ]  56 -> [ 4@0 ]  57 -> [ 4@0 ]  58 -> [ 4@0 ]  59 -> [ 4@0 ]  60 -> [ 12@0 ]  61 -> [ 12@0 ]  62 -> [ 12@0 ]  63 -> [ 12@0 ]  ].
8 | network_0/router_level2_4/vc_allocator | Input grants = [ 1 -> 44  4 -> 56  12 -> 60  ], output grants = [ 44 -> 1  56 -> 4  60 -> 12  ].
8 | network_0/router_level2_4 | Assigning VC 0 at output 14 to VC 0 at input 1.
8 | network_0/router_level2_4 | Beginning crossbar traversal for flit 9 from input 5.0 to output 12.0.
8 | network_0/router_level2_4 | Completed VC allocation for VC 0 at input 1 (front: 2).
8 | network_0/router_level2_4 |   Acquiring assigned VC 0 at output 14.
8 | network_0/router_level2_4/buf_1/vc_0 | Changing state from vc_alloc to active.
8 | network_0/router_level2_4 | Completed crossbar traversal for flit 9 from input 5.0 to output 12.0.
8 | network_0/router_level2_4 | Buffering flit 9 at output 12.
8 | network_0/router_level2_5 | Beginning crossbar traversal for flit 4 from input 2.0 to output 14.0.
8 | network_0/router_level2_5 | Completed crossbar traversal for flit 4 from input 2.0 to output 14.0.
8 | network_0/router_level2_5 | Buffering flit 4 at output 14.
8 | network_0/router_level2_6 | Beginning switch allocation for VC 0 at input 6 (front: 10).
8 | network_0/router_level2_6 |   Requesting output 8.0 (non-spec, pri: 0).
8 | network_0/router_level2_6/sw_allocator | Input requests = [ 6 -> [ 8@0 ]  ], output requests = [ 8 -> [ 6@0 ]  ].
8 | network_0/router_level2_6/sw_allocator | Input grants = [ 6 -> 8  ], output grants = [ 8 -> 6  ].
8 | network_0/router_level2_6 | Assigning output 8.0 to VC 0 at input 6.0.
8 | network_0/router_level2_6 | Beginning crossbar traversal for flit 5 from input 2.0 to output 8.0.
8 | network_0/router_level2_6 | Completed switch allocation for VC 0 at input 6 (front: 10).
8 | network_0/router_level2_6 |   Scheduling switch connection from input 6.0 to output 8.0.
8 | network_0/router_level2_6 | Updating lookahead routing information for flit 10.
8 | network_0/router_level2_6 | Completed crossbar traversal for flit 5 from input 2.0 to output 8.0.
8 | network_0/router_level2_6 | Buffering flit 5 at output 8.
8 | network_0/router_level2_0 | Sending flit 3 to channel at output 15.
8 | network_0/router_level2_1 | Sending flit 1 to channel at output 8.
8 | network_0/router_level2_1 | Sending flit 6 to channel at output 10.
8 | network_0/router_level2_1 | Sending flit 8 to channel at output 15.
8 | network_0/router_level2_3 | Sending flit 7 to channel at output 11.
8 | network_0/router_level2_4 | Sending flit 9 to channel at output 12.
8 | network_0/router_level2_5 | Sending flit 4 to channel at output 14.
8 | network_0/router_level2_6 | Sending flit 5 to channel at output 8.
9 | network_0/network_0_fchan_12295 | Beginning channel traversal for flit 3 with delay 1.
9 | network_0/network_0_fchan_12296 | Beginning channel traversal for flit 1 with delay 1.
9 | network_0/network_0_fchan_12298 | Beginning channel traversal for flit 6 with delay 1.
9 | network_0/network_0_fchan_12303 | Beginning channel traversal for flit 8 with delay 1.
9 | network_0/network_0_fchan_12315 | Beginning channel traversal for flit 7 with delay 1.
9 | network_0/network_0_fchan_12324 | Beginning channel traversal for flit 9 with delay 1.
9 | network_0/network_0_fchan_12334 | Beginning channel traversal for flit 4 with delay 1.
9 | network_0/network_0_fchan_12336 | Beginning channel traversal for flit 5 with delay 1.
9 | network_0/router_level2_4 | Beginning switch allocation for VC 0 at input 1 (front: 2).
9 | network_0/router_level2_4 |   Requesting output 14.0 (non-spec, pri: 0).
9 | network_0/router_level2_4/sw_allocator | Input requests = [ 0 -> [ 11@0 ]  1 -> [ 14@0 ]  3 -> [ 15@0 ]  ], output requests = [ 11 -> [ 0@0 ]  14 -> [ 1@0 ]  15 -> [ 3@0 ]  ].
9 | network_0/router_level2_4/sw_allocator | Input grants = [ 0 -> 11  1 -> 14  3 -> 15  ], output grants = [ 11 -> 0  14 -> 1  15 -> 3  ].
9 | network_0/router_level2_4 | Assigning output 14.0 to VC 0 at input 1.0.
9 | network_0/router_level2_4 | Completed switch allocation for VC 0 at input 1 (front: 2).
9 | network_0/router_level2_4 |   Scheduling switch connection from input 1.0 to output 14.0.
9 | network_0/router_level2_4 | Updating lookahead routing information for flit 2.
9 | network_0/router_level2_6 | Beginning crossbar traversal for flit 10 from input 6.0 to output 8.0.
9 | network_0/router_level2_6 | Completed crossbar traversal for flit 10 from input 6.0 to output 8.0.
9 | network_0/router_level2_6 | Buffering flit 10 at output 8.
9 | network_0/network_0_fchan_12295 | Completed channel traversal for flit 3.
9 | network_0/network_0_fchan_12296 | Completed channel traversal for flit 1.
9 | network_0/network_0_fchan_12298 | Completed channel traversal for flit 6.
9 | network_0/network_0_fchan_12303 | Completed channel traversal for flit 8.
9 | network_0/network_0_fchan_12315 | Completed channel traversal for flit 7.
9 | network_0/network_0_fchan_12324 | Completed channel traversal for flit 9.
9 | network_0/network_0_fchan_12334 | Completed channel traversal for flit 4.
9 | network_0/network_0_fchan_12336 | Completed channel traversal for flit 5.
9 | network_0/router_level2_6 | Sending flit 10 to channel at output 8.
10 | network_0/network_0_fchan_12336 | Beginning channel traversal for flit 10 with delay 1.
10 | network_0/router_level1_1 | Received flit 1 from channel at input 0.
10 | network_0/router_level1_6 | Received flit 5 from channel at input 0.
10 | network_0/router_level1_17 | Received flit 6 from channel at input 0.
10 | network_0/router_level1_27 | Received flit 7 from channel at input 0.
10 | network_0/router_level1_36 | Received flit 9 from channel at input 0.
10 | network_0/router_level1_53 | Received flit 4 from channel at input 0.
10 | network_0/router_level1_56 | Received flit 3 from channel at input 0.
10 | network_0/router_level1_57 | Received flit 8 from channel at input 0.
10 | network_0/router_level1_1 | Adding flit 1 to VC 0 at input 0 (state: idle, empty).
10 | network_0/router_level1_1 | Using precomputed lookahead routing information for VC 0 at input 0 (front: 1).
10 | network_0/router_level1_1/buf_0/vc_0 | Changing state from idle to vc_alloc.
10 | network_0/router_level1_1 | Beginning VC allocation for VC 0 at input 0 (front: 1).
10 | network_0/router_level1_1 |   Requesting VC 0 at output 11 (in_pri: 0, out_pri: 0).
10 | network_0/router_level1_1 |   Requesting VC 1 at output 11 (in_pri: 0, out_pri: 0).
10 | network_0/router_level1_1 |   Requesting VC 2 at output 11 (in_pri: 0, out_pri: 0).
10 | network_0/router_level1_1 |   Requesting VC 3 at output 11 (in_pri: 0, out_pri: 0).
10 | network_0/router_level1_1/vc_allocator | Input requests = [ 0 -> [ 44@0 45@0 46@0 47@0 ]  8 -> [ 40@0 41@0 42@0 43@0 ]  12 -> [ 60@0 61@0 62@0 63@0 ]  ], output requests = [ 40 -> [ 8@0 ]  41 -> [ 8@0 ]  42 -> [ 8@0 ]  43 -> [ 8@0 ]  44 -> [ 0@0 ]  45 -> [ 0@0 ]  46 -> [ 0@0 ]  47 -> [ 0@0 ]  60 -> [ 12@0 ]  61 -> [ 12@0 ]  62 -> [ 12@0 ]  63 -> [ 12@0 ]  ].
10 | network_0/router_level1_1/vc_allocator | Input grants = [ 0 -> 44  8 -> 40  12 -> 60  ], output grants = [ 40 -> 8  44 -> 0  60 -> 12  ].
10 | network_0/router_level1_1 | Assigning VC 0 at output 11 to VC 0 at input 0.
10 | network_0/router_level1_1 | Completed VC allocation for VC 0 at input 0 (front: 1).
10 | network_0/router_level1_1 |   Acquiring assigned VC 0 at output 11.
10 | network_0/router_level1_1/buf_0/vc_0 | Changing state from vc_alloc to active.
10 | network_0/router_level1_6 | Adding flit 5 to VC 0 at input 0 (state: idle, empty).
10 | network_0/router_level1_6 | Using precomputed lookahead routing information for VC 0 at input 0 (front: 5).
10 | network_0/router_level1_6/buf_0/vc_0 | Changing state from idle to vc_alloc.
10 | network_0/router_level1_6 | Beginning VC allocation for VC 0 at input 0 (front: 5).
10 | network_0/router_level1_6 |   Requesting VC 0 at output 14 (in_pri: 0, out_pri: 0).
10 | network_0/router_level1_6 |   Requesting VC 1 at output 14 (in_pri: 0, out_pri: 0).
10 | network_0/router_level1_6 |   Requesting VC 2 at output 14 (in_pri: 0, out_pri: 0).
10 | network_0/router_level1_6 |   Requesting VC 3 at output 14 (in_pri: 0, out_pri: 0).
10 | network_0/router_level1_6/vc_allocator | Input requests = [ 0 -> [ 56@0 57@0 58@0 59@0 ]  4 -> [ 48@0 49@0 50@0 51@0 ]  12 -> [ 40@0 41@0 42@0 43@0 ]  ], output requests = [ 40 -> [ 12@0 ]  41 -> [ 12@0 ]  42 -> [ 12@0 ]  43 -> [ 12@0 ]  48 -> [ 4@0 ]  49 -> [ 4@0 ]  50 -> [ 4@0 ]  51 -> [ 4@0 ]  56 -> [ 0@0 ]  57 -> [ 0@0 ]  58 -> [ 0@0 ]  59 -> [ 0@0 ]  ].
10 | network_0/router_level1_6/vc_allocator | Input grants = [ 0 -> 56  4 -> 48  12 -> 40  ], output grants = [ 40 -> 12  48 -> 4  56 -> 0  ].
10 | network_0/router_level1_6 | Assigning VC 0 at output 14 to VC 0 at input 0.
10 | network_0/router_level1_6 | Completed VC allocation for VC 0 at input 0 (front: 5).
10 | network_0/router_level1_6 |   Acquiring assigned VC 0 at output 14.
10 | network_0/router_level1_6/buf_0/vc_0 | Changing state from vc_alloc to active.
10 | network_0/router_level1_17 | Adding flit 6 to VC 0 at input 0 (state: idle, empty).
10 | network_0/router_level1_17 | Using precomputed lookahead routing information for VC 0 at input 0 (front: 6).
10 | network_0/router_level1_17/buf_0/vc_0 | Changing state from idle to vc_alloc.
10 | network_0/router_level1_17 | Beginning VC allocation for VC 0 at input 0 (front: 6).
10 | network_0/router_level1_17 |   Requesting VC 0 at output 15 (in_pri: 0, out_pri: 0).
10 | network_0/router_level1_17 |   Requesting VC 1 at output 15 (in_pri: 0, out_pri: 0).
10 | network_0/router_level1_17 |   Requesting VC 2 at output 15 (in_pri: 0, out_pri: 0).
10 | network_0/router_level1_17 |   Requesting VC 3 at output 15 (in_pri: 0, out_pri: 0).
10 | network_0/router_level1_17/vc_allocator | Input requests = [ 0 -> [ 60@0 61@0 62@0 63@0 ]  24 -> [ 60@0 61@0 62@0 63@0 ]  ], output requests = [ 60 -> [ 0@0 24@0 ]  61 -> [ 0@0 24@0 ]  62 -> [ 0@0 24@0 ]  63 -> [ 0@0 24@0 ]  ].
10 | network_0/router_level1_17/vc_allocator | Input grants = [ 0 -> 60  ], output grants = [ 60 -> 0  ].
10 | network_0/router_level1_17 | Assigning VC 0 at output 15 to VC 0 at input 0.
10 | network_0/router_level1_17 | Completed VC allocation for VC 0 at input 0 (front: 6).
10 | network_0/router_level1_17 |   Acquiring assigned VC 0 at output 15.
10 | network_0/router_level1_17/buf_0/vc_0 | Changing state from vc_alloc to active.
10 | network_0/router_level1_27 | Adding flit 7 to VC 0 at input 0 (state: idle, empty).
10 | network_0/router_level1_27 | Using precomputed lookahead routing information for VC 0 at input 0 (front: 7).
10 | network_0/router_level1_27/buf_0/vc_0 | Changing state from idle to vc_alloc.
10 | network_0/router_level1_27 | Beginning VC allocation for VC 0 at input 0 (front: 7).
10 | network_0/router_level1_27 |   Requesting VC 0 at output 14 (in_pri: 0, out_pri: 0).
10 | network_0/router_level1_27 |   Requesting VC 1 at output 14 (in_pri: 0, out_pri: 0).
10 | network_0/router_level1_27 |   Requesting VC 2 at output 14 (in_pri: 0, out_pri: 0).
10 | network_0/router_level1_27 |   Requesting VC 3 at output 14 (in_pri: 0, out_pri: 0).
10 | network_0/router_level1_27/vc_allocator | Input requests = [ 0 -> [ 56@0 57@0 58@0 59@0 ]  4 -> [ 44@0 45@0 46@0 47@0 ]  ], output requests = [ 44 -> [ 4@0 ]  45 -> [ 4@0 ]  46 -> [ 4@0 ]  47 -> [ 4@0 ]  56 -> [ 0@0 ]  57 -> [ 0@0 ]  58 -> [ 0@0 ]  59 -> [ 0@0 ]  ].
10 | network_0/router_level1_27/vc_allocator | Input grants = [ 0 -> 56  4 -> 44  ], output grants = [ 44 -> 4  56 -> 0  ].
10 | network_0/router_level1_27 | Assigning VC 0 at output 14 to VC 0 at input 0.
10 | network_0/router_level1_27 | Completed VC allocation for VC 0 at input 0 (front: 7).
10 | network_0/router_level1_27 |   Acquiring assigned VC 0 at output 14.
10 | network_0/router_level1_27/buf_0/vc_0 | Changing state from vc_alloc to active.
10 | network_0/router_level1_36 | Adding flit 9 to VC 0 at input 0 (state: idle, empty).
10 | network_0/router_level1_36 | Using precomputed lookahead routing information for VC 0 at input 0 (front: 9).
10 | network_0/router_level1_36/buf_0/vc_0 | Changing state from idle to vc_alloc.
10 | network_0/router_level1_36 | Beginning VC allocation for VC 0 at input 0 (front: 9).
10 | network_0/router_level1_36 |   Requesting VC 0 at output 7 (in_pri: 0, out_pri: 0).
10 | network_0/router_level1_36 |   Requesting VC 1 at output 7 (in_pri: 0, out_pri: 0).
10 | network_0/router_level1_36 |   Requesting VC 2 at output 7 (in_pri: 0, out_pri: 0).
10 | network_0/router_level1_36 |   Requesting VC 3 at output 7 (in_pri: 0, out_pri: 0).
10 | network_0/router_level1_36/vc_allocator | Input requests = [ 0 -> [ 28@0 29@0 30@0 31@0 ]  4 -> [ 32@0 33@0 34@0 35@0 ]  12 -> [ 52@0 53@0 54@0 55@0 ]  ], output requests = [ 28 -> [ 0@0 ]  29 -> [ 0@0 ]  30 -> [ 0@0 ]  31 -> [ 0@0 ]  32 -> [ 4@0 ]  33 -> [ 4@0 ]  34 -> [ 4@0 ]  35 -> [ 4@0 ]  52 -> [ 12@0 ]  53 -> [ 12@0 ]  54 -> [ 12@0 ]  55 -> [ 12@0 ]  ].
10 | network_0/router_level1_36/vc_allocator | Input grants = [ 0 -> 28  4 -> 32  12 -> 52  ], output grants = [ 28 -> 0  32 -> 4  52 -> 12  ].
10 | network_0/router_level1_36 | Assigning VC 0 at output 7 to VC 0 at input 0.
10 | network_0/router_level1_36 | Completed VC allocation for VC 0 at input 0 (front: 9).
10 | network_0/router_level1_36 |   Acquiring assigned VC 0 at output 7.
10 | network_0/router_level1_36/buf_0/vc_0 | Changing state from vc_alloc to active.
10 | network_0/router_level1_53 | Adding flit 4 to VC 0 at input 0 (state: idle, empty).
10 | network_0/router_level1_53 | Using precomputed lookahead routing information for VC 0 at input 0 (front: 4).
10 | network_0/router_level1_53/buf_0/vc_0 | Changing state from idle to vc_alloc.
10 | network_0/router_level1_53 | Beginning VC allocation for VC 0 at input 0 (front: 4).
10 | network_0/router_level1_53 |   Requesting VC 0 at output 14 (in_pri: 0, out_pri: 0).
10 | network_0/router_level1_53 |   Requesting VC 1 at output 14 (in_pri: 0, out_pri: 0).
10 | network_0/router_level1_53 |   Requesting VC 2 at output 14 (in_pri: 0, out_pri: 0).
10 | network_0/router_level1_53 |   Requesting VC 3 at output 14 (in_pri: 0, out_pri: 0).
10 | network_0/router_level1_53/vc_allocator | Input requests = [ 0 -> [ 56@0 57@0 58@0 59@0 ]  16 -> [ 52@0 53@0 54@0 55@0 ]  24 -> [ 36@0 37@0 38@0 39@0 ]  ], output requests = [ 36 -> [ 24@0 ]  37 -> [ 24@0 ]  38 -> [ 24@0 ]  39 -> [ 24@0 ]  52 -> [ 16@0 ]  53 -> [ 16@0 ]  54 -> [ 16@0 ]  55 -> [ 16@0 ]  56 -> [ 0@0 ]  57 -> [ 0@0 ]  58 -> [ 0@0 ]  59 -> [ 0@0 ]  ].
10 | network_0/router_level1_53/vc_allocator | Input grants = [ 0 -> 56  16 -> 52  24 -> 36  ], output grants = [ 36 -> 24  52 -> 16  56 -> 0  ].
10 | network_0/router_level1_53 | Assigning VC 0 at output 14 to VC 0 at input 0.
10 | network_0/router_level1_53 | Completed VC allocation for VC 0 at input 0 (front: 4).
10 | network_0/router_level1_53 |   Acquiring assigned VC 0 at output 14.
10 | network_0/router_level1_53/buf_0/vc_0 | Changing state from vc_alloc to active.
10 | network_0/router_level1_56 | Adding flit 3 to VC 0 at input 0 (state: idle, empty).
10 | network_0/router_level1_56 | Using precomputed lookahead routing information for VC 0 at input 0 (front: 3).
10 | network_0/router_level1_56/buf_0/vc_0 | Changing state from idle to vc_alloc.
10 | network_0/router_level1_56 | Beginning VC allocation for VC 0 at input 0 (front: 3).
10 | network_0/router_level1_56 |   Requesting VC 0 at output 10 (in_pri: 0, out_pri: 0).
10 | network_0/router_level1_56 |   Requesting VC 1 at output 10 (in_pri: 0, out_pri: 0).
10 | network_0/router_level1_56 |   Requesting VC 2 at output 10 (in_pri: 0, out_pri: 0).
10 | network_0/router_level1_56 |   Requesting VC 3 at output 10 (in_pri: 0, out_pri: 0).
10 | network_0/router_level1_56/vc_allocator | Input requests = [ 0 -> [ 40@0 41@0 42@0 43@0 ]  4 -> [ 60@0 61@0 62@0 63@0 ]  12 -> [ 8@0 9@0 10@0 11@0 ]  16 -> [ 40@0 41@0 42@0 43@0 ]  20 -> [ 44@0 45@0 46@0 47@0 ]  ], output requests = [ 8 -> [ 12@0 ]  9 -> [ 12@0 ]  10 -> [ 12@0 ]  11 -> [ 12@0 ]  40 -> [ 0@0 16@0 ]  41 -> [ 0@0 16@0 ]  42 -> [ 0@0 16@0 ]  43 -> [ 0@0 16@0 ]  44 -> [ 20@0 ]  45 -> [ 20@0 ]  46 -> [ 20@0 ]  47 -> [ 20@0 ]  60 -> [ 4@0 ]  61 -> [ 4@0 ]  62 -> [ 4@0 ]  63 -> [ 4@0 ]  ].
10 | network_0/router_level1_56/vc_allocator | Input grants = [ 0 -> 40  4 -> 60  12 -> 8  20 -> 44  ], output grants = [ 8 -> 12  40 -> 0  44 -> 20  60 -> 4  ].
10 | network_0/router_level1_56 | Assigning VC 0 at output 10 to VC 0 at input 0.
10 | network_0/router_level1_56 | Completed VC allocation for VC 0 at input 0 (front: 3).
10 | network_0/router_level1_56 |   Acquiring assigned VC 0 at output 10.
10 | network_0/router_level1_56/buf_0/vc_0 | Changing state from vc_alloc to active.
10 | network_0/router_level1_57 | Adding flit 8 to VC 0 at input 0 (state: idle, empty).
10 | network_0/router_level1_57 | Using precomputed lookahead routing information for VC 0 at input 0 (front: 8).
10 | network_0/router_level1_57/buf_0/vc_0 | Changing state from idle to vc_alloc.
10 | network_0/router_level1_57 | Beginning VC allocation for VC 0 at input 0 (front: 8).
10 | network_0/router_level1_57 |   Requesting VC 0 at output 10 (in_pri: 0, out_pri: 0).
10 | network_0/router_level1_57 |   Requesting VC 1 at output 10 (in_pri: 0, out_pri: 0).
10 | network_0/router_level1_57 |   Requesting VC 2 at output 10 (in_pri: 0, out_pri: 0).
10 | network_0/router_level1_57 |   Requesting VC 3 at output 10 (in_pri: 0, out_pri: 0).
10 | network_0/router_level1_57/vc_allocator | Input requests = [ 0 -> [ 40@0 41@0 42@0 43@0 ]  16 -> [ 36@0 37@0 38@0 39@0 ]  ], output requests = [ 36 -> [ 16@0 ]  37 -> [ 16@0 ]  38 -> [ 16@0 ]  39 -> [ 16@0 ]  40 -> [ 0@0 ]  41 -> [ 0@0 ]  42 -> [ 0@0 ]  43 -> [ 0@0 ]  ].
10 | network_0/router_level1_57/vc_allocator | Input grants = [ 0 -> 40  16 -> 36  ], output grants = [ 36 -> 16  40 -> 0  ].
10 | network_0/router_level1_57 | Assigning VC 0 at output 10 to VC 0 at input 0.
10 | network_0/router_level1_57 | Completed VC allocation for VC 0 at input 0 (front: 8).
10 | network_0/router_level1_57 |   Acquiring assigned VC 0 at output 10.
10 | network_0/router_level1_57/buf_0/vc_0 | Changing state from vc_alloc to active.
10 | network_0/router_level2_4 | Beginning crossbar traversal for flit 2 from input 1.0 to output 14.0.
10 | network_0/router_level2_4 | Completed crossbar traversal for flit 2 from input 1.0 to output 14.0.
10 | network_0/router_level2_4 | Buffering flit 2 at output 14.
10 | network_0/network_0_fchan_12336 | Completed channel traversal for flit 10.
10 | network_0/router_level2_4 | Sending flit 2 to channel at output 14.
11 | network_0/network_0_fchan_12326 | Beginning channel traversal for flit 2 with delay 1.
11 | network_0/router_level1_6 | Received flit 10 from channel at input 0.
11 | network_0/router_level1_1 | Beginning switch allocation for VC 0 at input 0 (front: 1).
11 | network_0/router_level1_1 |   Requesting output 11.0 (non-spec, pri: 0).
11 | network_0/router_level1_1/sw_allocator | Input requests = [ 0 -> [ 11@0 ]  2 -> [ 10@0 ]  3 -> [ 15@0 ]  ], output requests = [ 10 -> [ 2@0 ]  11 -> [ 0@0 ]  15 -> [ 3@0 ]  ].
11 | network_0/router_level1_1/sw_allocator | Input grants = [ 0 -> 11  2 -> 10  3 -> 15  ], output grants = [ 10 -> 2  11 -> 0  15 -> 3  ].
11 | network_0/router_level1_1 | Assigning output 11.0 to VC 0 at input 0.0.
11 | network_0/router_level1_1 | Completed switch allocation for VC 0 at input 0 (front: 1).
11 | network_0/router_level1_1 |   Scheduling switch connection from input 0.0 to output 11.0.
11 | network_0/router_level1_1 | Updating lookahead routing information for flit 1.
11 | network_0/router_level1_6 | Adding flit 10 to VC 1 at input 0 (state: idle, empty).
11 | network_0/router_level1_6 | Using precomputed lookahead routing information for VC 1 at input 0 (front: 10).
11 | network_0/router_level1_6/buf_0/vc_1 | Changing state from idle to vc_alloc.
11 | network_0/router_level1_6 | Beginning VC allocation for VC 1 at input 0 (front: 10).
11 | network_0/router_level1_6 |   VC 0 at output 10 is in use by VC 0 at input 3 (front flit: 50).
11 | network_0/router_level1_6 |   Requesting VC 1 at output 10 (in_pri: 0, out_pri: 0).
11 | network_0/router_level1_6 |   Requesting VC 2 at output 10 (in_pri: 0, out_pri: 0).
11 | network_0/router_level1_6 |   Requesting VC 3 at output 10 (in_pri: 0, out_pri: 0).
11 | network_0/router_level1_6/vc_allocator | Input requests = [ 1 -> [ 41@0 42@0 43@0 ]  ], output requests = [ 41 -> [ 1@0 ]  42 -> [ 1@0 ]  43 -> [ 1@0 ]  ].
11 | network_0/router_level1_6/vc_allocator | Input grants = [ 1 -> 41  ], output grants = [ 41 -> 1  ].
11 | network_0/router_level1_6 | Assigning VC 1 at output 10 to VC 1 at input 0.
11 | network_0/router_level1_6 | Beginning switch allocation for VC 0 at input 0 (front: 5).
11 | network_0/router_level1_6 |   Requesting output 14.0 (non-spec, pri: 0).
11 | network_0/router_level1_6/sw_allocator | Input requests = [ 0 -> [ 14@0 ]  1 -> [ 12@0 ]  3 -> [ 10@0 ]  ], output requests = [ 10 -> [ 3@0 ]  12 -> [ 1@0 ]  14 -> [ 0@0 ]  ].
11 | network_0/router_level1_6/sw_allocator | Input grants = [ 0 -> 14  1 -> 12  3 -> 10  ], output grants = [ 10 -> 3  12 -> 1  14 -> 0  ].
11 | network_0/router_level1_6 | Assigning output 14.0 to VC 0 at input 0.0.
11 | network_0/router_level1_6 | Completed VC allocation for VC 1 at input 0 (front: 10).
11 | network_0/router_level1_6 |   Acquiring assigned VC 1 at output 10.
11 | network_0/router_level1_6/buf_0/vc_1 | Changing state from vc_alloc to active.
11 | network_0/router_level1_6 | Completed switch allocation for VC 0 at input 0 (front: 5).
11 | network_0/router_level1_6 |   Scheduling switch connection from input 0.0 to output 14.0.
11 | network_0/router_level1_6 | Updating lookahead routing information for flit 5.
11 | network_0/router_level1_17 | Beginning switch allocation for VC 0 at input 0 (front: 6).
11 | network_0/router_level1_17 |   Requesting output 15.0 (non-spec, pri: 0).
11 | network_0/router_level1_17/sw_allocator | Input requests = [ 0 -> [ 15@0 ]  ], output requests = [ 15 -> [ 0@0 ]  ].
11 | network_0/router_level1_17/sw_allocator | Input grants = [ 0 -> 15  ], output grants = [ 15 -> 0  ].
11 | network_0/router_level1_17 | Assigning output 15.0 to VC 0 at input 0.0.
11 | network_0/router_level1_17 | Completed switch allocation for VC 0 at input 0 (front: 6).
11 | network_0/router_level1_17 |   Scheduling switch connection from input 0.0 to output 15.0.
11 | network_0/router_level1_17 | Updating lookahead routing information for flit 6.
11 | network_0/router_level1_27 | Beginning switch allocation for VC 0 at input 0 (front: 7).
11 | network_0/router_level1_27 |   Requesting output 14.0 (non-spec, pri: 0).
11 | network_0/router_level1_27/sw_allocator | Input requests = [ 0 -> [ 14@0 ]  1 -> [ 11@0 ]  ], output requests = [ 11 -> [ 1@0 ]  14 -> [ 0@0 ]  ].
11 | network_0/router_level1_27/sw_allocator | Input grants = [ 0 -> 14  1 -> 11  ], output grants = [ 11 -> 1  14 -> 0  ].
11 | network_0/router_level1_27 | Assigning output 14.0 to VC 0 at input 0.0.
11 | network_0/router_level1_27 | Completed switch allocation for VC 0 at input 0 (front: 7).
[...]
27 | network_0/router_level3_247 | Beginning switch allocation for VC 0 at input 9 (front: 1).
27 | network_0/router_level3_247 |   Requesting output 2.0 (non-spec, pri: 0).
27 | network_0/router_level3_247/sw_allocator | Input requests = [ 0 -> [ 9@0 ]  9 -> [ 2@0 ]  12 -> [ 0@0 ]  ], output requests = [ 0 -> [ 12@0 ]  2 -> [ 9@0 ]  9 -> [ 0@0 ]  ].
27 | network_0/router_level3_247/sw_allocator | Input grants = [ 0 -> 9  9 -> 2  12 -> 0  ], output grants = [ 0 -> 12  2 -> 9  9 -> 0  ].
27 | network_0/router_level3_247 | Assigning output 2.0 to VC 0 at input 9.0.
27 | network_0/router_level3_247 | Completed switch allocation for VC 0 at input 9 (front: 1).
27 | network_0/router_level3_247 |   Scheduling switch connection from input 9.0 to output 2.0.
27 | network_0/router_level3_305 | Beginning switch allocation for VC 0 at input 13 (front: 4).
27 | network_0/router_level3_305 |   Requesting output 0.0 (non-spec, pri: 0).
27 | network_0/router_level3_305/sw_allocator | Input requests = [ 5 -> [ 12@0 ]  8 -> [ 6@0 ]  13 -> [ 0@0 ]  14 -> [ 1@0 ]  ], output requests = [ 0 -> [ 13@0 ]  1 -> [ 14@0 ]  6 -> [ 8@0 ]  12 -> [ 5@0 ]  ].
27 | network_0/router_level3_305/sw_allocator | Input grants = [ 5 -> 12  8 -> 6  13 -> 0  14 -> 1  ], output grants = [ 0 -> 13  1 -> 14  6 -> 8  12 -> 5  ].
27 | network_0/router_level3_305 | Assigning output 0.0 to VC 0 at input 13.0.
27 | network_0/router_level3_305 | Completed switch allocation for VC 0 at input 13 (front: 4).
27 | network_0/router_level3_305 |   Scheduling switch connection from input 13.0 to output 0.0.
27 | network_0/router_level3_485 | Beginning switch allocation for VC 0 at input 14 (front: 5).
27 | network_0/router_level3_485 |   Requesting output 6.0 (non-spec, pri: 0).
27 | network_0/router_level3_485/sw_allocator | Input requests = [ 4 -> [ 12@0 ]  6 -> [ 13@0 ]  7 -> [ 10@0 ]  14 -> [ 6@0 ]  ], output requests = [ 6 -> [ 14@0 ]  10 -> [ 7@0 ]  12 -> [ 4@0 ]  13 -> [ 6@0 ]  ].
27 | network_0/router_level3_485/sw_allocator | Input grants = [ 4 -> 12  6 -> 13  7 -> 10  14 -> 6  ], output grants = [ 6 -> 14  10 -> 7  12 -> 4  13 -> 6  ].
27 | network_0/router_level3_485 | Assigning output 6.0 to VC 0 at input 14.0.
27 | network_0/router_level3_485 | Completed switch allocation for VC 0 at input 14 (front: 5).
27 | network_0/router_level3_485 |   Scheduling switch connection from input 14.0 to output 6.0.
27 | network_0/network_0_fchan_18150 | Completed channel traversal for flit 2.
28 | network_0/router_level3_222 | Received flit 2 from channel at input 12.
28 | network_0/router_level3_129 | Beginning switch allocation for VC 0 at input 14 (front: 10).
28 | network_0/router_level3_129 |   Requesting output 6.0 (non-spec, pri: 0).
28 | network_0/router_level3_129/sw_allocator | Input requests = [ 0 -> [ 8@0 ]  1 -> [ 14@0 ]  4 -> [ 11@0 ]  5 -> [ 12@0 ]  9 -> [ 2@0 ]  14 -> [ 6@0 ]  ], output requests = [ 2 -> [ 9@0 ]  6 -> [ 14@0 ]  8 -> [ 0@0 ]  11 -> [ 4@0 ]  12 -> [ 5@0 ]  14 -> [ 1@0 ]  ].
28 | network_0/router_level3_129/sw_allocator | Input grants = [ 0 -> 8  1 -> 14  4 -> 11  5 -> 12  9 -> 2  14 -> 6  ], output grants = [ 2 -> 9  6 -> 14  8 -> 0  11 -> 4  12 -> 5  14 -> 1  ].
28 | network_0/router_level3_129 | Assigning output 6.0 to VC 0 at input 14.0.
28 | network_0/router_level3_129 | Completed switch allocation for VC 0 at input 14 (front: 10).
28 | network_0/router_level3_129 |   Scheduling switch connection from input 14.0 to output 6.0.
28 | network_0/router_level3_151 | Beginning crossbar traversal for flit 3 from input 8.0 to output 1.0.
28 | network_0/router_level3_151 | Completed crossbar traversal for flit 3 from input 8.0 to output 1.0.
28 | network_0/router_level3_151 | Buffering flit 3 at output 1.
28 | network_0/router_level3_171 | Beginning crossbar traversal for flit 6 from input 9.0 to output 2.0.
28 | network_0/router_level3_171 | Completed crossbar traversal for flit 6 from input 9.0 to output 2.0.
28 | network_0/router_level3_171 | Buffering flit 6 at output 2.
28 | network_0/router_level3_222 | Adding flit 2 to VC 0 at input 12 (state: idle, empty).
28 | network_0/router_level3_222 | Using precomputed lookahead routing information for VC 0 at input 12 (front: 2).
28 | network_0/router_level3_222/buf_12/vc_0 | Changing state from idle to vc_alloc.
28 | network_0/router_level3_222 | Beginning VC allocation for VC 0 at input 12 (front: 2).
28 | network_0/router_level3_222 |   Requesting VC 0 at output 3 (in_pri: 0, out_pri: 0).
28 | network_0/router_level3_222 |   Requesting VC 1 at output 3 (in_pri: 0, out_pri: 0).
28 | network_0/router_level3_222 |   Requesting VC 2 at output 3 (in_pri: 0, out_pri: 0).
28 | network_0/router_level3_222 |   Requesting VC 3 at output 3 (in_pri: 0, out_pri: 0).
28 | network_0/router_level3_222/vc_allocator | Input requests = [ 12 -> [ 60@0 62@0 63@0 ]  22 -> [ 60@0 62@0 63@0 ]  29 -> [ 48@0 49@0 50@0 51@0 ]  40 -> [ 0@0 2@0 3@0 ]  48 -> [ 12@0 13@0 14@0 15@0 ]  52 -> [ 8@0 9@0 10@0 11@0 ]  ], output requests = [ 0 -> [ 40@0 ]  2 -> [ 40@0 ]  3 -> [ 40@0 ]  8 -> [ 52@0 ]  9 -> [ 52@0 ]  10 -> [ 52@0 ]  11 -> [ 52@0 ]  12 -> [ 48@0 ]  13 -> [ 48@0 ]  14 -> [ 48@0 ]  15 -> [ 48@0 ]  48 -> [ 29@0 ]  49 -> [ 29@0 ]  50 -> [ 29@0 ]  51 -> [ 29@0 ]  60 -> [ 12@0 22@0 ]  62 -> [ 12@0 22@0 ]  63 -> [ 12@0 22@0 ]  ].
28 | network_0/router_level3_222/vc_allocator | Input grants = [ 12 -> 60  29 -> 49  40 -> 2  48 -> 12  52 -> 8  ], output grants = [ 2 -> 40  8 -> 52  12 -> 48  49 -> 29  60 -> 12  ].
28 | network_0/router_level3_222 | Assigning VC 0 at output 3 to VC 0 at input 12.
28 | network_0/router_level3_222 | Completed VC allocation for VC 0 at input 12 (front: 2).
28 | network_0/router_level3_222 |   Acquiring assigned VC 0 at output 3.
28 | network_0/router_level3_222/buf_12/vc_0 | Changing state from vc_alloc to active.
28 | network_0/router_level3_224 | Beginning crossbar traversal for flit 8 from input 9.0 to output 3.0.
28 | network_0/router_level3_224 | Completed crossbar traversal for flit 8 from input 9.0 to output 3.0.
28 | network_0/router_level3_224 | Buffering flit 8 at output 3.
28 | network_0/router_level3_226 | Beginning crossbar traversal for flit 7 from input 11.0 to output 2.0.
28 | network_0/router_level3_226 | Completed crossbar traversal for flit 7 from input 11.0 to output 2.0.
28 | network_0/router_level3_226 | Buffering flit 7 at output 2.
28 | network_0/router_level3_247 | Beginning crossbar traversal for flit 1 from input 9.0 to output 2.0.
28 | network_0/router_level3_247 | Completed crossbar traversal for flit 1 from input 9.0 to output 2.0.
28 | network_0/router_level3_247 | Buffering flit 1 at output 2.
28 | network_0/router_level3_305 | Beginning crossbar traversal for flit 4 from input 13.0 to output 0.0.
28 | network_0/router_level3_305 | Completed crossbar traversal for flit 4 from input 13.0 to output 0.0.
28 | network_0/router_level3_305 | Buffering flit 4 at output 0.
28 | network_0/router_level3_485 | Beginning crossbar traversal for flit 5 from input 14.0 to output 6.0.
28 | network_0/router_level3_485 | Completed crossbar traversal for flit 5 from input 14.0 to output 6.0.
28 | network_0/router_level3_485 | Buffering flit 5 at output 6.
28 | network_0/router_level3_151 | Sending flit 3 to channel at output 1.
28 | network_0/router_level3_171 | Sending flit 6 to channel at output 2.
28 | network_0/router_level3_224 | Sending flit 8 to channel at output 3.
28 | network_0/router_level3_226 | Sending flit 7 to channel at output 2.
28 | network_0/router_level3_247 | Sending flit 1 to channel at output 2.
28 | network_0/router_level3_305 | Sending flit 4 to channel at output 0.
28 | network_0/router_level3_485 | Sending flit 5 to channel at output 6.
29 | network_0/network_0_fchan_egress1209 | Beginning channel traversal for flit 3 with delay 1.
29 | network_0/network_0_fchan_egress1370 | Beginning channel traversal for flit 6 with delay 1.
29 | network_0/network_0_fchan_egress1795 | Beginning channel traversal for flit 8 with delay 1.
29 | network_0/network_0_fchan_egress1810 | Beginning channel traversal for flit 7 with delay 1.
29 | network_0/network_0_fchan_egress1978 | Beginning channel traversal for flit 1 with delay 1.
29 | network_0/network_0_fchan_egress2440 | Beginning channel traversal for flit 4 with delay 1.
29 | network_0/network_0_fchan_egress3886 | Beginning channel traversal for flit 5 with delay 1.
29 | network_0/router_level3_129 | Beginning crossbar traversal for flit 10 from input 14.0 to output 6.0.
29 | network_0/router_level3_129 | Completed crossbar traversal for flit 10 from input 14.0 to output 6.0.
29 | network_0/router_level3_129 | Buffering flit 10 at output 6.
29 | network_0/router_level3_222 | Beginning switch allocation for VC 0 at input 12 (front: 2).
29 | network_0/router_level3_222 |   Requesting output 3.0 (non-spec, pri: 0).
29 | network_0/router_level3_222/sw_allocator | Input requests = [ 3 -> [ 15@0 ]  7 -> [ 12@0 ]  10 -> [ 0@0 ]  12 -> [ 3@0 ]  13 -> [ 2@0 ]  ], output requests = [ 0 -> [ 10@0 ]  2 -> [ 13@0 ]  3 -> [ 12@0 ]  12 -> [ 7@0 ]  15 -> [ 3@0 ]  ].
29 | network_0/router_level3_222/sw_allocator | Input grants = [ 3 -> 15  7 -> 12  10 -> 0  12 -> 3  13 -> 2  ], output grants = [ 0 -> 10  2 -> 13  3 -> 12  12 -> 7  15 -> 3  ].
29 | network_0/router_level3_222 | Assigning output 3.0 to VC 0 at input 12.0.
29 | network_0/router_level3_222 | Completed switch allocation for VC 0 at input 12 (front: 2).
29 | network_0/router_level3_222 |   Scheduling switch connection from input 12.0 to output 3.0.
29 | network_0/network_0_fchan_egress1209 | Completed channel traversal for flit 3.
29 | network_0/network_0_fchan_egress1370 | Completed channel traversal for flit 6.
29 | network_0/network_0_fchan_egress1795 | Completed channel traversal for flit 8.
29 | network_0/network_0_fchan_egress1810 | Completed channel traversal for flit 7.
29 | network_0/network_0_fchan_egress1978 | Completed channel traversal for flit 1.
29 | network_0/network_0_fchan_egress2440 | Completed channel traversal for flit 4.
29 | network_0/network_0_fchan_egress3886 | Completed channel traversal for flit 5.
29 | network_0/router_level3_129 | Sending flit 10 to channel at output 6.
30 | node1209 | Ejecting flit 3 (packet 3) from VC 0.
30 | node1370 | Ejecting flit 6 (packet 6) from VC 0.
30 | node1795 | Ejecting flit 8 (packet 8) from VC 0.
30 | node1810 | Ejecting flit 7 (packet 7) from VC 0.
30 | node1978 | Ejecting flit 1 (packet 1) from VC 0.
30 | node2440 | Ejecting flit 4 (packet 4) from VC 0.
30 | node3886 | Ejecting flit 5 (packet 5) from VC 0.
30 | network_0/network_0_fchan_egress1038 | Beginning channel traversal for flit 10 with delay 1.
30 | node1209 | Injecting credit for VC 0 into subnet 0.
30 | node1209 | Retiring flit 3 (packet 3, src = 15, dest = 1209, hops = 7, flat = 30).
30 | node1209 | Retiring packet 3 (plat = 30, nlat = 30, frag = 0, src = 15, dest = 1209).
30 | node1370 | Injecting credit for VC 0 into subnet 0.
30 | node1370 | Retiring flit 6 (packet 6, src = 31, dest = 1370, hops = 7, flat = 30).
30 | node1370 | Retiring packet 6 (plat = 30, nlat = 30, frag = 0, src = 31, dest = 1370).
30 | node1795 | Injecting credit for VC 0 into subnet 0.
30 | node1795 | Retiring flit 8 (packet 8, src = 40, dest = 1795, hops = 7, flat = 30).
30 | node1795 | Retiring packet 8 (plat = 30, nlat = 30, frag = 0, src = 40, dest = 1795).
30 | node1810 | Injecting credit for VC 0 into subnet 0.
30 | node1810 | Retiring flit 7 (packet 7, src = 34, dest = 1810, hops = 7, flat = 30).
30 | node1810 | Retiring packet 7 (plat = 30, nlat = 30, frag = 0, src = 34, dest = 1810).
30 | node1978 | Injecting credit for VC 0 into subnet 0.
30 | node1978 | Retiring flit 1 (packet 1, src = 13, dest = 1978, hops = 7, flat = 30).
30 | node1978 | Retiring packet 1 (plat = 30, nlat = 30, frag = 0, src = 13, dest = 1978).
30 | node2440 | Injecting credit for VC 0 into subnet 0.
30 | node2440 | Retiring flit 4 (packet 4, src = 18, dest = 2440, hops = 7, flat = 30).
30 | node2440 | Retiring packet 4 (plat = 30, nlat = 30, frag = 0, src = 18, dest = 2440).
30 | node3886 | Injecting credit for VC 0 into subnet 0.
30 | node3886 | Retiring flit 5 (packet 5, src = 20, dest = 3886, hops = 7, flat = 30).
30 | node3886 | Retiring packet 5 (plat = 30, nlat = 30, frag = 0, src = 20, dest = 3886).
30 | network_0/router_level3_222 | Beginning crossbar traversal for flit 2 from input 12.0 to output 3.0.
30 | network_0/router_level3_222 | Completed crossbar traversal for flit 2 from input 12.0 to output 3.0.
30 | network_0/router_level3_222 | Buffering flit 2 at output 3.
30 | network_0/network_0_fchan_egress1038 | Completed channel traversal for flit 10.
30 | network_0/router_level3_222 | Sending flit 2 to channel at output 3.
31 | node1038 | Ejecting flit 10 (packet 10) from VC 0.
31 | network_0/network_0_fchan_egress1779 | Beginning channel traversal for flit 2 with delay 1.
31 | node1038 | Injecting credit for VC 0 into subnet 0.
31 | node1038 | Retiring flit 10 (packet 10, src = 53, dest = 1038, hops = 7, flat = 31).
31 | node1038 | Retiring packet 10 (plat = 31, nlat = 31, frag = 0, src = 53, dest = 1038).
31 | network_0/network_0_fchan_egress1779 | Completed channel traversal for flit 2.
32 | node1779 | Ejecting flit 2 (packet 2) from VC 0.
32 | node1779 | Injecting credit for VC 0 into subnet 0.
32 | node1779 | Retiring flit 2 (packet 2, src = 14, dest = 1779, hops = 7, flat = 32).
32 | node1779 | Retiring packet 2 (plat = 32, nlat = 32, frag = 0, src = 14, dest = 1779).
Class 0:
Packet latency average = 31.1075
	minimum = 6
	maximum = 57
Network latency average = 31.1075
	minimum = 6
	maximum = 57
Slowest packet = 661383
Flit latency average = 31.1075
	minimum = 6
	maximum = 57
Slowest flit = 661383
Fragmentation average = 0
	minimum = 0
	maximum = 0
Injected packet rate average = 0.299721
	minimum = 0.247 (at node 3445)
	maximum = 0.345 (at node 761)
Accepted packet rate average = 0.290338
	minimum = 0.239 (at node 1006)
	maximum = 0.347 (at node 23)
Injected flit rate average = 0.299721
	minimum = 0.247 (at node 3445)
	maximum = 0.345 (at node 761)
Accepted flit rate average= 0.290338
	minimum = 0.239 (at node 1006)
	maximum = 0.347 (at node 23)
Injected packet length average = 1
Accepted packet length average = 1
Total in-flight flits = 38432 (0 measured)
latency change    = 1
throughput change = 1
Class 0:
Packet latency average = 31.1208
	minimum = 6
	maximum = 57
Network latency average = 31.1208
	minimum = 6
	maximum = 57
Slowest packet = 661383
Flit latency average = 31.1208
	minimum = 6
	maximum = 57
Slowest flit = 661383
Fragmentation average = 0
	minimum = 0
	maximum = 0
Injected packet rate average = 0.299846
	minimum = 0.266 (at node 562)
	maximum = 0.3355 (at node 3923)
Accepted packet rate average = 0.295214
	minimum = 0.2535 (at node 430)
	maximum = 0.343 (at node 1051)
Injected flit rate average = 0.299846
	minimum = 0.266 (at node 562)
	maximum = 0.3355 (at node 3923)
Accepted flit rate average= 0.295214
	minimum = 0.2535 (at node 430)
	maximum = 0.343 (at node 1051)
Injected packet length average = 1
Accepted packet length average = 1
Total in-flight flits = 37949 (0 measured)
latency change    = 0.000427306
throughput change = 0.0165147
Class 0:
Packet latency average = 31.1299
	minimum = 6
	maximum = 53
Network latency average = 31.1299
	minimum = 6
	maximum = 53
Slowest packet = 2877671
Flit latency average = 31.1299
	minimum = 6
	maximum = 53
Slowest flit = 2877671
Fragmentation average = 0
	minimum = 0
	maximum = 0
Injected packet rate average = 0.300108
	minimum = 0.244 (at node 3853)
	maximum = 0.35 (at node 2471)
Accepted packet rate average = 0.300031
	minimum = 0.244 (at node 279)
	maximum = 0.361 (at node 2397)
Injected flit rate average = 0.300108
	minimum = 0.244 (at node 3853)
	maximum = 0.35 (at node 2471)
Accepted flit rate average= 0.300031
	minimum = 0.244 (at node 279)
	maximum = 0.361 (at node 2397)
Injected packet length average = 1
Accepted packet length average = 1
Total in-flight flits = 38264 (0 measured)
latency change    = 0.000290408
throughput change = 0.0160575
Warmed up ...Time used is 3000 cycles
Class 0:
Packet latency average = 31.1119
	minimum = 6
	maximum = 59
Network latency average = 31.1119
	minimum = 6
	maximum = 59
Slowest packet = 3928755
Flit latency average = 31.1293
	minimum = 6
	maximum = 59
Slowest flit = 3928755
Fragmentation average = 0
	minimum = 0
	maximum = 0
Injected packet rate average = 0.299799
	minimum = 0.243 (at node 3355)
	maximum = 0.354 (at node 3684)
Accepted packet rate average = 0.299873
	minimum = 0.235 (at node 505)
	maximum = 0.37 (at node 1857)
Injected flit rate average = 0.299799
	minimum = 0.243 (at node 3355)
	maximum = 0.354 (at node 3684)
Accepted flit rate average= 0.299873
	minimum = 0.235 (at node 505)
	maximum = 0.37 (at node 1857)
Injected packet length average = 1
Accepted packet length average = 1
Total in-flight flits = 37961 (37961 measured)
latency change    = 0.000576628
throughput change = 0.00053001
Class 0:
Packet latency average = 31.1213
	minimum = 6
	maximum = 59
Network latency average = 31.1213
	minimum = 6
	maximum = 59
Slowest packet = 3928755
Flit latency average = 31.1299
	minimum = 6
	maximum = 59
Slowest flit = 3928755
Fragmentation average = 0
	minimum = 0
	maximum = 0
Injected packet rate average = 0.299984
	minimum = 0.266 (at node 3143)
	maximum = 0.3345 (at node 2152)
Accepted packet rate average = 0.3
	minimum = 0.257 (at node 1368)
	maximum = 0.3495 (at node 513)
Injected flit rate average = 0.299984
	minimum = 0.266 (at node 3143)
	maximum = 0.3345 (at node 2152)
Accepted flit rate average= 0.3
	minimum = 0.257 (at node 1368)
	maximum = 0.3495 (at node 513)
Injected packet length average = 1
Accepted packet length average = 1
Total in-flight flits = 38134 (38134 measured)
latency change    = 0.000301476
throughput change = 0.000424805
Class 0:
Packet latency average = 31.1283
	minimum = 6
	maximum = 59
Network latency average = 31.1283
	minimum = 6
	maximum = 59
Slowest packet = 3928755
Flit latency average = 31.1339
	minimum = 6
	maximum = 59
Slowest flit = 3928755
Fragmentation average = 0
	minimum = 0
	maximum = 0
Injected packet rate average = 0.300054
	minimum = 0.268 (at node 3010)
	maximum = 0.328 (at node 580)
Accepted packet rate average = 0.300052
	minimum = 0.263667 (at node 407)
	maximum = 0.335333 (at node 2223)
Injected flit rate average = 0.300054
	minimum = 0.268 (at node 3010)
	maximum = 0.328 (at node 580)
Accepted flit rate average= 0.300052
	minimum = 0.263667 (at node 407)
	maximum = 0.335333 (at node 2223)
Injected packet length average = 1
Accepted packet length average = 1
Total in-flight flits = 38288 (38288 measured)
latency change    = 0.000225041
throughput change = 0.000172767
Draining all recorded packets ...
Draining remaining packets ...
Time taken is 6087 cycles
====== Overall Traffic Statistics ======
====== Traffic class 0 ======
Packet latency average = 31.1337 (1 samples)
	minimum = 6 (1 samples)
	maximum = 59 (1 samples)
Network latency average = 31.1337 (1 samples)
	minimum = 6 (1 samples)
	maximum = 59 (1 samples)
Flit latency average = 31.1386 (1 samples)
	minimum = 6 (1 samples)
	maximum = 59 (1 samples)
Fragmentation average = 0 (1 samples)
	minimum = 0 (1 samples)
	maximum = 0 (1 samples)
Injected packet rate average = 0.300054 (1 samples)
	minimum = 0.268 (1 samples)
	maximum = 0.328 (1 samples)
Accepted packet rate average = 0.300052 (1 samples)
	minimum = 0.263667 (1 samples)
	maximum = 0.335333 (1 samples)
Injected flit rate average = 0.300054 (1 samples)
	minimum = 0.268 (1 samples)
	maximum = 0.328 (1 samples)
Accepted flit rate average = 0.300052 (1 samples)
	minimum = 0.263667 (1 samples)
	maximum = 0.335333 (1 samples)
Injected packet size average = 1 (1 samples)
Accepted packet size average = 1 (1 samples)
Hops average = 6.71498 (1 samples)
Total run time 666.605
