BEGIN Configuration File: examples/fattree_config_0.90_1_transpose
// $Id: dragonflyconfig 3555 2011-05-16 23:37:55Z dub $

// Copyright (c) 2007-2015, Trustees of The Leland Stanford Junior University
// All rights reserved.
//
// Redistribution and use in source and binary forms, with or without
// modification, are permitted provided that the following conditions are met:
//
// Redistributions of source code must retain the above copyright notice, this
// list of conditions and the following disclaimer.
// Redistributions in binary form must reproduce the above copyright notice,
// this list of conditions and the following disclaimer in the documentation
// and/or other materials provided with the distribution.
//
// THIS SOFTWARE IS PROVIDED BY THE COPYRIGHT HOLDERS AND CONTRIBUTORS "AS IS"
// AND ANY EXPRESS OR IMPLIED WARRANTIES, INCLUDING, BUT NOT LIMITED TO, THE
// IMPLIED WARRANTIES OF MERCHANTABILITY AND FITNESS FOR A PARTICULAR PURPOSE
// ARE DISCLAIMED. IN NO EVENT SHALL THE COPYRIGHT OWNER OR CONTRIBUTORS BE
// LIABLE FOR ANY DIRECT, INDIRECT, INCIDENTAL, SPECIAL, EXEMPLARY, OR
// CONSEQUENTIAL DAMAGES (INCLUDING, BUT NOT LIMITED TO, PROCUREMENT OF
// SUBSTITUTE GOODS OR SERVICES; LOSS OF USE, DATA, OR PROFITS; OR BUSINESS
// INTERRUPTION) HOWEVER CAUSED AND ON ANY THEORY OF LIABILITY, WHETHER IN
// CONTRACT, STRICT LIABILITY, OR TORT (INCLUDING NEGLIGENCE OR OTHERWISE)
// ARISING IN ANY WAY OUT OF THE USE OF THIS SOFTWARE, EVEN IF ADVISED OF THE
// POSSIBILITY OF SUCH DAMAGE.


hold_switch_for_packet=1;

vc_buf_size = 16;


wait_for_tail_credit = 0;

//
// Router architecture
//
vc_allocator = separable_input_first; 
sw_allocator = separable_input_first;
alloc_iters  = 1;

credit_delay   = 2;
routing_delay  = 0;
vc_alloc_delay = 1;
sw_alloc_delay = 1;
st_final_delay = 1;

input_speedup     = 1;
output_speedup    = 1;
internal_speedup  = 1.0;


warmup_periods = 3;
sim_count          = 1;

sample_period  = 1000;  

routing_function = nca;
num_vcs     = 4;

priority = none;
traffic = transpose;


injection_rate = 0.90;
packet_size = 1;
injection_rate_uses_flits=1;

topology = fattree;

k  = 8;
n  = 4;
t = 1;

watch_file = watchfile.txt;
watch_out=-;
stats_out = examples/fattree_config_0.90_1_transpose.m;

END Configuration File: examples/fattree_config_0.90_1_transpose
Fat Tree
 k = 8 levels = 4
 each switch - total radix =  16
 # of switches = 2048
 # of channels = 24576
 # of nodes ( size of network ) = 4096
 tapering factor = 1
0 | node1 | Enqueuing flit 1 (packet 1) at time 0.
0 | node2 | Enqueuing flit 2 (packet 2) at time 0.
0 | node3 | Enqueuing flit 3 (packet 3) at time 0.
0 | node4 | Enqueuing flit 4 (packet 4) at time 0.
0 | node5 | Enqueuing flit 5 (packet 5) at time 0.
0 | node6 | Enqueuing flit 6 (packet 6) at time 0.
0 | node7 | Enqueuing flit 7 (packet 7) at time 0.
0 | node8 | Enqueuing flit 8 (packet 8) at time 0.
0 | node9 | Enqueuing flit 9 (packet 9) at time 0.
0 | node10 | Enqueuing flit 10 (packet 10) at time 0.
0 | traffic_manager | Finding output VC for flit 1:
0 | traffic_manager |   Selected output VC 0.
0 | node1 | Generating lookahead routing info for flit 1.
0 | node1 | Injecting flit 1 into subnet 0 at time 0 with priority 0.
0 | traffic_manager | Finding output VC for flit 2:
0 | traffic_manager |   Selected output VC 0.
0 | node2 | Generating lookahead routing info for flit 2.
0 | node2 | Injecting flit 2 into subnet 0 at time 0 with priority 0.
0 | traffic_manager | Finding output VC for flit 3:
0 | traffic_manager |   Selected output VC 0.
0 | node3 | Generating lookahead routing info for flit 3.
0 | node3 | Injecting flit 3 into subnet 0 at time 0 with priority 0.
0 | traffic_manager | Finding output VC for flit 4:
0 | traffic_manager |   Selected output VC 0.
0 | node4 | Generating lookahead routing info for flit 4.
0 | node4 | Injecting flit 4 into subnet 0 at time 0 with priority 0.
0 | traffic_manager | Finding output VC for flit 5:
0 | traffic_manager |   Selected output VC 0.
0 | node5 | Generating lookahead routing info for flit 5.
0 | node5 | Injecting flit 5 into subnet 0 at time 0 with priority 0.
0 | traffic_manager | Finding output VC for flit 6:
0 | traffic_manager |   Selected output VC 0.
0 | node6 | Generating lookahead routing info for flit 6.
0 | node6 | Injecting flit 6 into subnet 0 at time 0 with priority 0.
0 | traffic_manager | Finding output VC for flit 7:
0 | traffic_manager |   Selected output VC 0.
0 | node7 | Generating lookahead routing info for flit 7.
0 | node7 | Injecting flit 7 into subnet 0 at time 0 with priority 0.
0 | traffic_manager | Finding output VC for flit 8:
0 | traffic_manager |   Selected output VC 0.
0 | node8 | Generating lookahead routing info for flit 8.
0 | node8 | Injecting flit 8 into subnet 0 at time 0 with priority 0.
0 | traffic_manager | Finding output VC for flit 9:
0 | traffic_manager |   Selected output VC 0.
0 | node9 | Generating lookahead routing info for flit 9.
0 | node9 | Injecting flit 9 into subnet 0 at time 0 with priority 0.
0 | traffic_manager | Finding output VC for flit 10:
0 | traffic_manager |   Selected output VC 0.
0 | node10 | Generating lookahead routing info for flit 10.
0 | node10 | Injecting flit 10 into subnet 0 at time 0 with priority 0.
1 | network_0/network_0_fchan_ingress1 | Beginning channel traversal for flit 1 with delay 1.
1 | network_0/network_0_fchan_ingress2 | Beginning channel traversal for flit 2 with delay 1.
1 | network_0/network_0_fchan_ingress3 | Beginning channel traversal for flit 3 with delay 1.
1 | network_0/network_0_fchan_ingress4 | Beginning channel traversal for flit 4 with delay 1.
1 | network_0/network_0_fchan_ingress5 | Beginning channel traversal for flit 5 with delay 1.
1 | network_0/network_0_fchan_ingress6 | Beginning channel traversal for flit 6 with delay 1.
1 | network_0/network_0_fchan_ingress7 | Beginning channel traversal for flit 7 with delay 1.
1 | network_0/network_0_fchan_ingress8 | Beginning channel traversal for flit 8 with delay 1.
1 | network_0/network_0_fchan_ingress9 | Beginning channel traversal for flit 9 with delay 1.
1 | network_0/network_0_fchan_ingress10 | Beginning channel traversal for flit 10 with delay 1.
1 | network_0/network_0_fchan_ingress1 | Completed channel traversal for flit 1.
1 | network_0/network_0_fchan_ingress2 | Completed channel traversal for flit 2.
1 | network_0/network_0_fchan_ingress3 | Completed channel traversal for flit 3.
1 | network_0/network_0_fchan_ingress4 | Completed channel traversal for flit 4.
1 | network_0/network_0_fchan_ingress5 | Completed channel traversal for flit 5.
1 | network_0/network_0_fchan_ingress6 | Completed channel traversal for flit 6.
1 | network_0/network_0_fchan_ingress7 | Completed channel traversal for flit 7.
1 | network_0/network_0_fchan_ingress8 | Completed channel traversal for flit 8.
1 | network_0/network_0_fchan_ingress9 | Completed channel traversal for flit 9.
1 | network_0/network_0_fchan_ingress10 | Completed channel traversal for flit 10.
2 | network_0/router_level3_0 | Received flit 1 from channel at input 1.
2 | network_0/router_level3_0 | Received flit 2 from channel at input 2.
2 | network_0/router_level3_0 | Received flit 3 from channel at input 3.
2 | network_0/router_level3_0 | Received flit 4 from channel at input 4.
2 | network_0/router_level3_0 | Received flit 5 from channel at input 5.
2 | network_0/router_level3_0 | Received flit 6 from channel at input 6.
2 | network_0/router_level3_0 | Received flit 7 from channel at input 7.
2 | network_0/router_level3_1 | Received flit 8 from channel at input 0.
2 | network_0/router_level3_1 | Received flit 9 from channel at input 1.
2 | network_0/router_level3_1 | Received flit 10 from channel at input 2.
2 | network_0/router_level3_0 | Adding flit 1 to VC 0 at input 1 (state: idle, empty).
2 | network_0/router_level3_0 | Using precomputed lookahead routing information for VC 0 at input 1 (front: 1).
2 | network_0/router_level3_0/buf_1/vc_0 | Changing state from idle to vc_alloc.
2 | network_0/router_level3_0 | Adding flit 2 to VC 0 at input 2 (state: idle, empty).
2 | network_0/router_level3_0 | Using precomputed lookahead routing information for VC 0 at input 2 (front: 2).
2 | network_0/router_level3_0/buf_2/vc_0 | Changing state from idle to vc_alloc.
2 | network_0/router_level3_0 | Adding flit 3 to VC 0 at input 3 (state: idle, empty).
2 | network_0/router_level3_0 | Using precomputed lookahead routing information for VC 0 at input 3 (front: 3).
2 | network_0/router_level3_0/buf_3/vc_0 | Changing state from idle to vc_alloc.
2 | network_0/router_level3_0 | Adding flit 4 to VC 0 at input 4 (state: idle, empty).
2 | network_0/router_level3_0 | Using precomputed lookahead routing information for VC 0 at input 4 (front: 4).
2 | network_0/router_level3_0/buf_4/vc_0 | Changing state from idle to vc_alloc.
2 | network_0/router_level3_0 | Adding flit 5 to VC 0 at input 5 (state: idle, empty).
2 | network_0/router_level3_0 | Using precomputed lookahead routing information for VC 0 at input 5 (front: 5).
2 | network_0/router_level3_0/buf_5/vc_0 | Changing state from idle to vc_alloc.
2 | network_0/router_level3_0 | Adding flit 6 to VC 0 at input 6 (state: idle, empty).
2 | network_0/router_level3_0 | Using precomputed lookahead routing information for VC 0 at input 6 (front: 6).
2 | network_0/router_level3_0/buf_6/vc_0 | Changing state from idle to vc_alloc.
2 | network_0/router_level3_0 | Adding flit 7 to VC 0 at input 7 (state: idle, empty).
2 | network_0/router_level3_0 | Using precomputed lookahead routing information for VC 0 at input 7 (front: 7).
2 | network_0/router_level3_0/buf_7/vc_0 | Changing state from idle to vc_alloc.
2 | network_0/router_level3_0 | Beginning VC allocation for VC 0 at input 1 (front: 1).
2 | network_0/router_level3_0 |   Requesting VC 0 at output 14 (in_pri: 0, out_pri: 0).
2 | network_0/router_level3_0 |   Requesting VC 1 at output 14 (in_pri: 0, out_pri: 0).
2 | network_0/router_level3_0 |   Requesting VC 2 at output 14 (in_pri: 0, out_pri: 0).
2 | network_0/router_level3_0 |   Requesting VC 3 at output 14 (in_pri: 0, out_pri: 0).
2 | network_0/router_level3_0 | Beginning VC allocation for VC 0 at input 2 (front: 2).
2 | network_0/router_level3_0 |   Requesting VC 0 at output 10 (in_pri: 0, out_pri: 0).
2 | network_0/router_level3_0 |   Requesting VC 1 at output 10 (in_pri: 0, out_pri: 0).
2 | network_0/router_level3_0 |   Requesting VC 2 at output 10 (in_pri: 0, out_pri: 0).
2 | network_0/router_level3_0 |   Requesting VC 3 at output 10 (in_pri: 0, out_pri: 0).
2 | network_0/router_level3_0 | Beginning VC allocation for VC 0 at input 3 (front: 3).
2 | network_0/router_level3_0 |   Requesting VC 0 at output 13 (in_pri: 0, out_pri: 0).
2 | network_0/router_level3_0 |   Requesting VC 1 at output 13 (in_pri: 0, out_pri: 0).
2 | network_0/router_level3_0 |   Requesting VC 2 at output 13 (in_pri: 0, out_pri: 0).
2 | network_0/router_level3_0 |   Requesting VC 3 at output 13 (in_pri: 0, out_pri: 0).
2 | network_0/router_level3_0 | Beginning VC allocation for VC 0 at input 4 (front: 4).
2 | network_0/router_level3_0 |   Requesting VC 0 at output 13 (in_pri: 0, out_pri: 0).
2 | network_0/router_level3_0 |   Requesting VC 1 at output 13 (in_pri: 0, out_pri: 0).
2 | network_0/router_level3_0 |   Requesting VC 2 at output 13 (in_pri: 0, out_pri: 0).
2 | network_0/router_level3_0 |   Requesting VC 3 at output 13 (in_pri: 0, out_pri: 0).
2 | network_0/router_level3_0 | Beginning VC allocation for VC 0 at input 5 (front: 5).
2 | network_0/router_level3_0 |   Requesting VC 0 at output 8 (in_pri: 0, out_pri: 0).
2 | network_0/router_level3_0 |   Requesting VC 1 at output 8 (in_pri: 0, out_pri: 0).
2 | network_0/router_level3_0 |   Requesting VC 2 at output 8 (in_pri: 0, out_pri: 0).
2 | network_0/router_level3_0 |   Requesting VC 3 at output 8 (in_pri: 0, out_pri: 0).
2 | network_0/router_level3_0 | Beginning VC allocation for VC 0 at input 6 (front: 6).
2 | network_0/router_level3_0 |   Requesting VC 0 at output 14 (in_pri: 0, out_pri: 0).
2 | network_0/router_level3_0 |   Requesting VC 1 at output 14 (in_pri: 0, out_pri: 0).
2 | network_0/router_level3_0 |   Requesting VC 2 at output 14 (in_pri: 0, out_pri: 0).
2 | network_0/router_level3_0 |   Requesting VC 3 at output 14 (in_pri: 0, out_pri: 0).
2 | network_0/router_level3_0 | Beginning VC allocation for VC 0 at input 7 (front: 7).
2 | network_0/router_level3_0 |   Requesting VC 0 at output 12 (in_pri: 0, out_pri: 0).
2 | network_0/router_level3_0 |   Requesting VC 1 at output 12 (in_pri: 0, out_pri: 0).
2 | network_0/router_level3_0 |   Requesting VC 2 at output 12 (in_pri: 0, out_pri: 0).
2 | network_0/router_level3_0 |   Requesting VC 3 at output 12 (in_pri: 0, out_pri: 0).
2 | network_0/router_level3_0/vc_allocator | Input requests = [ 0 -> [ 0@0 1@0 2@0 3@0 ]  4 -> [ 56@0 57@0 58@0 59@0 ]  8 -> [ 40@0 41@0 42@0 43@0 ]  12 -> [ 52@0 53@0 54@0 55@0 ]  16 -> [ 52@0 53@0 54@0 55@0 ]  20 -> [ 32@0 33@0 34@0 35@0 ]  24 -> [ 56@0 57@0 58@0 59@0 ]  28 -> [ 48@0 49@0 50@0 51@0 ]  ], output requests = [ 0 -> [ 0@0 ]  1 -> [ 0@0 ]  2 -> [ 0@0 ]  3 -> [ 0@0 ]  32 -> [ 20@0 ]  33 -> [ 20@0 ]  34 -> [ 20@0 ]  35 -> [ 20@0 ]  40 -> [ 8@0 ]  41 -> [ 8@0 ]  42 -> [ 8@0 ]  43 -> [ 8@0 ]  48 -> [ 28@0 ]  49 -> [ 28@0 ]  50 -> [ 28@0 ]  51 -> [ 28@0 ]  52 -> [ 12@0 16@0 ]  53 -> [ 12@0 16@0 ]  54 -> [ 12@0 16@0 ]  55 -> [ 12@0 16@0 ]  56 -> [ 4@0 24@0 ]  57 -> [ 4@0 24@0 ]  58 -> [ 4@0 24@0 ]  59 -> [ 4@0 24@0 ]  ].
2 | network_0/router_level3_0/vc_allocator | Input grants = [ 0 -> 0  4 -> 56  8 -> 40  12 -> 52  20 -> 32  28 -> 48  ], output grants = [ 0 -> 0  32 -> 20  40 -> 8  48 -> 28  52 -> 12  56 -> 4  ].
2 | network_0/router_level3_0 | Assigning VC 0 at output 14 to VC 0 at input 1.
2 | network_0/router_level3_0 | Assigning VC 0 at output 10 to VC 0 at input 2.
2 | network_0/router_level3_0 | Assigning VC 0 at output 13 to VC 0 at input 3.
2 | network_0/router_level3_0 | VC allocation failed for VC 0 at input 4.
2 | network_0/router_level3_0 | Assigning VC 0 at output 8 to VC 0 at input 5.
2 | network_0/router_level3_0 | VC allocation failed for VC 0 at input 6.
2 | network_0/router_level3_0 | Assigning VC 0 at output 12 to VC 0 at input 7.
2 | network_0/router_level3_0 | Completed VC allocation for VC 0 at input 1 (front: 1).
2 | network_0/router_level3_0 |   Acquiring assigned VC 0 at output 14.
2 | network_0/router_level3_0/buf_1/vc_0 | Changing state from vc_alloc to active.
2 | network_0/router_level3_0 | Completed VC allocation for VC 0 at input 2 (front: 2).
2 | network_0/router_level3_0 |   Acquiring assigned VC 0 at output 10.
2 | network_0/router_level3_0/buf_2/vc_0 | Changing state from vc_alloc to active.
2 | network_0/router_level3_0 | Completed VC allocation for VC 0 at input 3 (front: 3).
2 | network_0/router_level3_0 |   Acquiring assigned VC 0 at output 13.
2 | network_0/router_level3_0/buf_3/vc_0 | Changing state from vc_alloc to active.
2 | network_0/router_level3_0 | Completed VC allocation for VC 0 at input 4 (front: 4).
2 | network_0/router_level3_0 |   No output VC allocated.
2 | network_0/router_level3_0 | Completed VC allocation for VC 0 at input 5 (front: 5).
2 | network_0/router_level3_0 |   Acquiring assigned VC 0 at output 8.
2 | network_0/router_level3_0/buf_5/vc_0 | Changing state from vc_alloc to active.
2 | network_0/router_level3_0 | Completed VC allocation for VC 0 at input 6 (front: 6).
2 | network_0/router_level3_0 |   No output VC allocated.
2 | network_0/router_level3_0 | Completed VC allocation for VC 0 at input 7 (front: 7).
2 | network_0/router_level3_0 |   Acquiring assigned VC 0 at output 12.
2 | network_0/router_level3_0/buf_7/vc_0 | Changing state from vc_alloc to active.
2 | network_0/router_level3_1 | Adding flit 8 to VC 0 at input 0 (state: idle, empty).
2 | network_0/router_level3_1 | Using precomputed lookahead routing information for VC 0 at input 0 (front: 8).
2 | network_0/router_level3_1/buf_0/vc_0 | Changing state from idle to vc_alloc.
2 | network_0/router_level3_1 | Adding flit 9 to VC 0 at input 1 (state: idle, empty).
2 | network_0/router_level3_1 | Using precomputed lookahead routing information for VC 0 at input 1 (front: 9).
2 | network_0/router_level3_1/buf_1/vc_0 | Changing state from idle to vc_alloc.
2 | network_0/router_level3_1 | Adding flit 10 to VC 0 at input 2 (state: idle, empty).
2 | network_0/router_level3_1 | Using precomputed lookahead routing information for VC 0 at input 2 (front: 10).
2 | network_0/router_level3_1/buf_2/vc_0 | Changing state from idle to vc_alloc.
2 | network_0/router_level3_1 | Beginning VC allocation for VC 0 at input 0 (front: 8).
2 | network_0/router_level3_1 |   Requesting VC 0 at output 13 (in_pri: 0, out_pri: 0).
2 | network_0/router_level3_1 |   Requesting VC 1 at output 13 (in_pri: 0, out_pri: 0).
2 | network_0/router_level3_1 |   Requesting VC 2 at output 13 (in_pri: 0, out_pri: 0).
2 | network_0/router_level3_1 |   Requesting VC 3 at output 13 (in_pri: 0, out_pri: 0).
2 | network_0/router_level3_1 | Beginning VC allocation for VC 0 at input 1 (front: 9).
2 | network_0/router_level3_1 |   Requesting VC 0 at output 15 (in_pri: 0, out_pri: 0).
2 | network_0/router_level3_1 |   Requesting VC 1 at output 15 (in_pri: 0, out_pri: 0).
2 | network_0/router_level3_1 |   Requesting VC 2 at output 15 (in_pri: 0, out_pri: 0).
2 | network_0/router_level3_1 |   Requesting VC 3 at output 15 (in_pri: 0, out_pri: 0).
2 | network_0/router_level3_1 | Beginning VC allocation for VC 0 at input 2 (front: 10).
2 | network_0/router_level3_1 |   Requesting VC 0 at output 11 (in_pri: 0, out_pri: 0).
2 | network_0/router_level3_1 |   Requesting VC 1 at output 11 (in_pri: 0, out_pri: 0).
2 | network_0/router_level3_1 |   Requesting VC 2 at output 11 (in_pri: 0, out_pri: 0).
2 | network_0/router_level3_1 |   Requesting VC 3 at output 11 (in_pri: 0, out_pri: 0).
2 | network_0/router_level3_1/vc_allocator | Input requests = [ 0 -> [ 52@0 53@0 54@0 55@0 ]  4 -> [ 60@0 61@0 62@0 63@0 ]  8 -> [ 44@0 45@0 46@0 47@0 ]  12 -> [ 40@0 41@0 42@0 43@0 ]  16 -> [ 52@0 53@0 54@0 55@0 ]  20 -> [ 60@0 61@0 62@0 63@0 ]  24 -> [ 36@0 37@0 38@0 39@0 ]  28 -> [ 60@0 61@0 62@0 63@0 ]  ], output requests = [ 36 -> [ 24@0 ]  37 -> [ 24@0 ]  38 -> [ 24@0 ]  39 -> [ 24@0 ]  40 -> [ 12@0 ]  41 -> [ 12@0 ]  42 -> [ 12@0 ]  43 -> [ 12@0 ]  44 -> [ 8@0 ]  45 -> [ 8@0 ]  46 -> [ 8@0 ]  47 -> [ 8@0 ]  52 -> [ 0@0 16@0 ]  53 -> [ 0@0 16@0 ]  54 -> [ 0@0 16@0 ]  55 -> [ 0@0 16@0 ]  60 -> [ 4@0 20@0 28@0 ]  61 -> [ 4@0 20@0 28@0 ]  62 -> [ 4@0 20@0 28@0 ]  63 -> [ 4@0 20@0 28@0 ]  ].
2 | network_0/router_level3_1/vc_allocator | Input grants = [ 0 -> 52  4 -> 60  8 -> 44  12 -> 40  24 -> 36  ], output grants = [ 36 -> 24  40 -> 12  44 -> 8  52 -> 0  60 -> 4  ].
2 | network_0/router_level3_1 | Assigning VC 0 at output 13 to VC 0 at input 0.
2 | network_0/router_level3_1 | Assigning VC 0 at output 15 to VC 0 at input 1.
2 | network_0/router_level3_1 | Assigning VC 0 at output 11 to VC 0 at input 2.
2 | network_0/router_level3_1 | Completed VC allocation for VC 0 at input 0 (front: 8).
2 | network_0/router_level3_1 |   Acquiring assigned VC 0 at output 13.
2 | network_0/router_level3_1/buf_0/vc_0 | Changing state from vc_alloc to active.
2 | network_0/router_level3_1 | Completed VC allocation for VC 0 at input 1 (front: 9).
2 | network_0/router_level3_1 |   Acquiring assigned VC 0 at output 15.
2 | network_0/router_level3_1/buf_1/vc_0 | Changing state from vc_alloc to active.
2 | network_0/router_level3_1 | Completed VC allocation for VC 0 at input 2 (front: 10).
2 | network_0/router_level3_1 |   Acquiring assigned VC 0 at output 11.
2 | network_0/router_level3_1/buf_2/vc_0 | Changing state from vc_alloc to active.
3 | network_0/router_level3_0 | Beginning VC allocation for VC 0 at input 4 (front: 4).
3 | network_0/router_level3_0 |   VC 0 at output 13 is in use by VC 0 at input 3 (front flit: 3).
3 | network_0/router_level3_0 |   Requesting VC 1 at output 13 (in_pri: 0, out_pri: 0).
3 | network_0/router_level3_0 |   Requesting VC 2 at output 13 (in_pri: 0, out_pri: 0).
3 | network_0/router_level3_0 |   Requesting VC 3 at output 13 (in_pri: 0, out_pri: 0).
3 | network_0/router_level3_0 | Beginning VC allocation for VC 0 at input 6 (front: 6).
3 | network_0/router_level3_0 |   VC 0 at output 14 is in use by VC 0 at input 1 (front flit: 1).
3 | network_0/router_level3_0 |   Requesting VC 1 at output 14 (in_pri: 0, out_pri: 0).
3 | network_0/router_level3_0 |   Requesting VC 2 at output 14 (in_pri: 0, out_pri: 0).
3 | network_0/router_level3_0 |   Requesting VC 3 at output 14 (in_pri: 0, out_pri: 0).
3 | network_0/router_level3_0/vc_allocator | Input requests = [ 1 -> [ 1@0 2@0 3@0 ]  5 -> [ 60@0 61@0 62@0 63@0 ]  9 -> [ 49@0 50@0 51@0 ]  13 -> [ 36@0 37@0 38@0 39@0 ]  16 -> [ 53@0 54@0 55@0 ]  17 -> [ 53@0 54@0 55@0 ]  21 -> [ 36@0 37@0 38@0 39@0 ]  24 -> [ 57@0 58@0 59@0 ]  25 -> [ 53@0 54@0 55@0 ]  29 -> [ 53@0 54@0 55@0 ]  ], output requests = [ 1 -> [ 1@0 ]  2 -> [ 1@0 ]  3 -> [ 1@0 ]  36 -> [ 13@0 21@0 ]  37 -> [ 13@0 21@0 ]  38 -> [ 13@0 21@0 ]  39 -> [ 13@0 21@0 ]  49 -> [ 9@0 ]  50 -> [ 9@0 ]  51 -> [ 9@0 ]  53 -> [ 16@0 17@0 25@0 29@0 ]  54 -> [ 16@0 17@0 25@0 29@0 ]  55 -> [ 16@0 17@0 25@0 29@0 ]  57 -> [ 24@0 ]  58 -> [ 24@0 ]  59 -> [ 24@0 ]  60 -> [ 5@0 ]  61 -> [ 5@0 ]  62 -> [ 5@0 ]  63 -> [ 5@0 ]  ].
3 | network_0/router_level3_0/vc_allocator | Input grants = [ 1 -> 1  5 -> 60  9 -> 49  13 -> 36  16 -> 53  24 -> 57  ], output grants = [ 1 -> 1  36 -> 13  49 -> 9  53 -> 16  57 -> 24  60 -> 5  ].
3 | network_0/router_level3_0 | Assigning VC 1 at output 13 to VC 0 at input 4.
3 | network_0/router_level3_0 | Assigning VC 1 at output 14 to VC 0 at input 6.
3 | network_0/router_level3_0 | Beginning switch allocation for VC 0 at input 1 (front: 1).
3 | network_0/router_level3_0 |   Requesting output 14.0 (non-spec, pri: 0).
3 | network_0/router_level3_0 | Beginning switch allocation for VC 0 at input 2 (front: 2).
3 | network_0/router_level3_0 |   Requesting output 10.0 (non-spec, pri: 0).
3 | network_0/router_level3_0 | Beginning switch allocation for VC 0 at input 3 (front: 3).
3 | network_0/router_level3_0 |   Requesting output 13.0 (non-spec, pri: 0).
3 | network_0/router_level3_0 | Beginning switch allocation for VC 0 at input 5 (front: 5).
3 | network_0/router_level3_0 |   Requesting output 8.0 (non-spec, pri: 0).
3 | network_0/router_level3_0 | Beginning switch allocation for VC 0 at input 7 (front: 7).
3 | network_0/router_level3_0 |   Requesting output 12.0 (non-spec, pri: 0).
3 | network_0/router_level3_0/sw_allocator | Input requests = [ 0 -> [ 0@0 ]  1 -> [ 14@0 ]  2 -> [ 10@0 ]  3 -> [ 13@0 ]  5 -> [ 8@0 ]  7 -> [ 12@0 ]  ], output requests = [ 0 -> [ 0@0 ]  8 -> [ 5@0 ]  10 -> [ 2@0 ]  12 -> [ 7@0 ]  13 -> [ 3@0 ]  14 -> [ 1@0 ]  ].
3 | network_0/router_level3_0/sw_allocator | Input grants = [ 0 -> 0  1 -> 14  2 -> 10  3 -> 13  5 -> 8  7 -> 12  ], output grants = [ 0 -> 0  8 -> 5  10 -> 2  12 -> 7  13 -> 3  14 -> 1  ].
3 | network_0/router_level3_0 | Assigning output 14.0 to VC 0 at input 1.0.
3 | network_0/router_level3_0 | Assigning output 10.0 to VC 0 at input 2.0.
3 | network_0/router_level3_0 | Assigning output 13.0 to VC 0 at input 3.0.
3 | network_0/router_level3_0 | Assigning output 8.0 to VC 0 at input 5.0.
3 | network_0/router_level3_0 | Assigning output 12.0 to VC 0 at input 7.0.
3 | network_0/router_level3_0 | Completed VC allocation for VC 0 at input 4 (front: 4).
3 | network_0/router_level3_0 |   Acquiring assigned VC 1 at output 13.
3 | network_0/router_level3_0/buf_4/vc_0 | Changing state from vc_alloc to active.
3 | network_0/router_level3_0 | Completed VC allocation for VC 0 at input 6 (front: 6).
3 | network_0/router_level3_0 |   Acquiring assigned VC 1 at output 14.
3 | network_0/router_level3_0/buf_6/vc_0 | Changing state from vc_alloc to active.
3 | network_0/router_level3_0 | Completed switch allocation for VC 0 at input 1 (front: 1).
3 | network_0/router_level3_0 |   Scheduling switch connection from input 1.0 to output 14.0.
3 | network_0/router_level3_0 | Updating lookahead routing information for flit 1.
3 | network_0/router_level3_0 | Completed switch allocation for VC 0 at input 2 (front: 2).
3 | network_0/router_level3_0 |   Scheduling switch connection from input 2.0 to output 10.0.
3 | network_0/router_level3_0 | Updating lookahead routing information for flit 2.
3 | network_0/router_level3_0 | Completed switch allocation for VC 0 at input 3 (front: 3).
3 | network_0/router_level3_0 |   Scheduling switch connection from input 3.0 to output 13.0.
3 | network_0/router_level3_0 | Updating lookahead routing information for flit 3.
3 | network_0/router_level3_0 | Completed switch allocation for VC 0 at input 5 (front: 5).
3 | network_0/router_level3_0 |   Scheduling switch connection from input 5.0 to output 8.0.
3 | network_0/router_level3_0 | Updating lookahead routing information for flit 5.
3 | network_0/router_level3_0 | Completed switch allocation for VC 0 at input 7 (front: 7).
3 | network_0/router_level3_0 |   Scheduling switch connection from input 7.0 to output 12.0.
3 | network_0/router_level3_0 | Updating lookahead routing information for flit 7.
3 | network_0/router_level3_1 | Beginning switch allocation for VC 0 at input 0 (front: 8).
3 | network_0/router_level3_1 |   Requesting output 13.0 (non-spec, pri: 0).
3 | network_0/router_level3_1 | Beginning switch allocation for VC 0 at input 1 (front: 9).
3 | network_0/router_level3_1 |   Requesting output 15.0 (non-spec, pri: 0).
3 | network_0/router_level3_1 | Beginning switch allocation for VC 0 at input 2 (front: 10).
3 | network_0/router_level3_1 |   Requesting output 11.0 (non-spec, pri: 0).
3 | network_0/router_level3_1/sw_allocator | Input requests = [ 0 -> [ 13@0 ]  1 -> [ 15@0 ]  2 -> [ 11@0 ]  3 -> [ 10@0 ]  6 -> [ 9@0 ]  ], output requests = [ 9 -> [ 6@0 ]  10 -> [ 3@0 ]  11 -> [ 2@0 ]  13 -> [ 0@0 ]  15 -> [ 1@0 ]  ].
3 | network_0/router_level3_1/sw_allocator | Input grants = [ 0 -> 13  1 -> 15  2 -> 11  3 -> 10  6 -> 9  ], output grants = [ 9 -> 6  10 -> 3  11 -> 2  13 -> 0  15 -> 1  ].
3 | network_0/router_level3_1 | Assigning output 13.0 to VC 0 at input 0.0.
3 | network_0/router_level3_1 | Assigning output 15.0 to VC 0 at input 1.0.
3 | network_0/router_level3_1 | Assigning output 11.0 to VC 0 at input 2.0.
3 | network_0/router_level3_1 | Completed switch allocation for VC 0 at input 0 (front: 8).
3 | network_0/router_level3_1 |   Scheduling switch connection from input 0.0 to output 13.0.
3 | network_0/router_level3_1 | Updating lookahead routing information for flit 8.
3 | network_0/router_level3_1 | Completed switch allocation for VC 0 at input 1 (front: 9).
3 | network_0/router_level3_1 |   Scheduling switch connection from input 1.0 to output 15.0.
3 | network_0/router_level3_1 | Updating lookahead routing information for flit 9.
3 | network_0/router_level3_1 | Completed switch allocation for VC 0 at input 2 (front: 10).
3 | network_0/router_level3_1 |   Scheduling switch connection from input 2.0 to output 11.0.
3 | network_0/router_level3_1 | Updating lookahead routing information for flit 10.
4 | network_0/router_level3_0 | Beginning switch allocation for VC 0 at input 4 (front: 4).
4 | network_0/router_level3_0 |   Requesting output 13.0 (non-spec, pri: 0).
4 | network_0/router_level3_0 | Beginning switch allocation for VC 0 at input 6 (front: 6).
4 | network_0/router_level3_0 |   Requesting output 14.0 (non-spec, pri: 0).
4 | network_0/router_level3_0/sw_allocator | Input requests = [ 0 -> [ 0@0 ]  1 -> [ 15@0 ]  2 -> [ 12@0 ]  3 -> [ 9@0 ]  4 -> [ 13@0 ]  6 -> [ 14@0 ]  ], output requests = [ 0 -> [ 0@0 ]  9 -> [ 3@0 ]  12 -> [ 2@0 ]  13 -> [ 4@0 ]  14 -> [ 6@0 ]  15 -> [ 1@0 ]  ].
4 | network_0/router_level3_0/sw_allocator | Input grants = [ 0 -> 0  1 -> 15  2 -> 12  3 -> 9  4 -> 13  6 -> 14  ], output grants = [ 0 -> 0  9 -> 3  12 -> 2  13 -> 4  14 -> 6  15 -> 1  ].
4 | network_0/router_level3_0 | Assigning output 13.0 to VC 0 at input 4.0.
4 | network_0/router_level3_0 | Assigning output 14.0 to VC 0 at input 6.0.
4 | network_0/router_level3_0 | Beginning crossbar traversal for flit 1 from input 1.0 to output 14.0.
4 | network_0/router_level3_0 | Beginning crossbar traversal for flit 2 from input 2.0 to output 10.0.
4 | network_0/router_level3_0 | Beginning crossbar traversal for flit 3 from input 3.0 to output 13.0.
4 | network_0/router_level3_0 | Beginning crossbar traversal for flit 5 from input 5.0 to output 8.0.
4 | network_0/router_level3_0 | Beginning crossbar traversal for flit 7 from input 7.0 to output 12.0.
4 | network_0/router_level3_0 | Completed switch allocation for VC 0 at input 4 (front: 4).
4 | network_0/router_level3_0 |   Scheduling switch connection from input 4.0 to output 13.0.
4 | network_0/router_level3_0 | Updating lookahead routing information for flit 4.
4 | network_0/router_level3_0 | Completed switch allocation for VC 0 at input 6 (front: 6).
4 | network_0/router_level3_0 |   Scheduling switch connection from input 6.0 to output 14.0.
4 | network_0/router_level3_0 | Updating lookahead routing information for flit 6.
4 | network_0/router_level3_0 | Completed crossbar traversal for flit 1 from input 1.0 to output 14.0.
4 | network_0/router_level3_0 | Buffering flit 1 at output 14.
4 | network_0/router_level3_0 | Completed crossbar traversal for flit 2 from input 2.0 to output 10.0.
4 | network_0/router_level3_0 | Buffering flit 2 at output 10.
4 | network_0/router_level3_0 | Completed crossbar traversal for flit 3 from input 3.0 to output 13.0.
4 | network_0/router_level3_0 | Buffering flit 3 at output 13.
4 | network_0/router_level3_0 | Completed crossbar traversal for flit 5 from input 5.0 to output 8.0.
4 | network_0/router_level3_0 | Buffering flit 5 at output 8.
4 | network_0/router_level3_0 | Completed crossbar traversal for flit 7 from input 7.0 to output 12.0.
4 | network_0/router_level3_0 | Buffering flit 7 at output 12.
4 | network_0/router_level3_1 | Beginning crossbar traversal for flit 8 from input 0.0 to output 13.0.
4 | network_0/router_level3_1 | Beginning crossbar traversal for flit 9 from input 1.0 to output 15.0.
4 | network_0/router_level3_1 | Beginning crossbar traversal for flit 10 from input 2.0 to output 11.0.
4 | network_0/router_level3_1 | Completed crossbar traversal for flit 8 from input 0.0 to output 13.0.
4 | network_0/router_level3_1 | Buffering flit 8 at output 13.
4 | network_0/router_level3_1 | Completed crossbar traversal for flit 9 from input 1.0 to output 15.0.
4 | network_0/router_level3_1 | Buffering flit 9 at output 15.
4 | network_0/router_level3_1 | Completed crossbar traversal for flit 10 from input 2.0 to output 11.0.
4 | network_0/router_level3_1 | Buffering flit 10 at output 11.
4 | network_0/router_level3_0 | Sending flit 5 to channel at output 8.
4 | network_0/router_level3_0 | Sending flit 2 to channel at output 10.
4 | network_0/router_level3_0 | Sending flit 7 to channel at output 12.
4 | network_0/router_level3_0 | Sending flit 3 to channel at output 13.
4 | network_0/router_level3_0 | Sending flit 1 to channel at output 14.
4 | network_0/router_level3_1 | Sending flit 10 to channel at output 11.
4 | network_0/router_level3_1 | Sending flit 8 to channel at output 13.
4 | network_0/router_level3_1 | Sending flit 9 to channel at output 15.
5 | network_0/network_0_fchan_20480 | Beginning channel traversal for flit 5 with delay 1.
5 | network_0/network_0_fchan_20482 | Beginning channel traversal for flit 2 with delay 1.
5 | network_0/network_0_fchan_20484 | Beginning channel traversal for flit 7 with delay 1.
5 | network_0/network_0_fchan_20485 | Beginning channel traversal for flit 3 with delay 1.
5 | network_0/network_0_fchan_20486 | Beginning channel traversal for flit 1 with delay 1.
5 | network_0/network_0_fchan_20491 | Beginning channel traversal for flit 10 with delay 1.
5 | network_0/network_0_fchan_20493 | Beginning channel traversal for flit 8 with delay 1.
5 | network_0/network_0_fchan_20495 | Beginning channel traversal for flit 9 with delay 1.
5 | network_0/router_level3_0 | Beginning crossbar traversal for flit 4 from input 4.0 to output 13.0.
5 | network_0/router_level3_0 | Beginning crossbar traversal for flit 6 from input 6.0 to output 14.0.
5 | network_0/router_level3_0 | Completed crossbar traversal for flit 4 from input 4.0 to output 13.0.
5 | network_0/router_level3_0 | Buffering flit 4 at output 13.
5 | network_0/router_level3_0 | Completed crossbar traversal for flit 6 from input 6.0 to output 14.0.
5 | network_0/router_level3_0 | Buffering flit 6 at output 14.
5 | network_0/network_0_fchan_20480 | Completed channel traversal for flit 5.
5 | network_0/network_0_fchan_20482 | Completed channel traversal for flit 2.
5 | network_0/network_0_fchan_20484 | Completed channel traversal for flit 7.
5 | network_0/network_0_fchan_20485 | Completed channel traversal for flit 3.
5 | network_0/network_0_fchan_20486 | Completed channel traversal for flit 1.
5 | network_0/network_0_fchan_20491 | Completed channel traversal for flit 10.
5 | network_0/network_0_fchan_20493 | Completed channel traversal for flit 8.
5 | network_0/network_0_fchan_20495 | Completed channel traversal for flit 9.
5 | network_0/router_level3_0 | Sending flit 4 to channel at output 13.
5 | network_0/router_level3_0 | Sending flit 6 to channel at output 14.
6 | network_0/network_0_fchan_20485 | Beginning channel traversal for flit 4 with delay 1.
6 | network_0/network_0_fchan_20486 | Beginning channel traversal for flit 6 with delay 1.
6 | network_0/router_level2_0 | Received flit 5 from channel at input 0.
6 | network_0/router_level2_2 | Received flit 2 from channel at input 0.
6 | network_0/router_level2_3 | Received flit 10 from channel at input 1.
6 | network_0/router_level2_4 | Received flit 7 from channel at input 0.
6 | network_0/router_level2_5 | Received flit 3 from channel at input 0.
6 | network_0/router_level2_5 | Received flit 8 from channel at input 1.
6 | network_0/router_level2_6 | Received flit 1 from channel at input 0.
6 | network_0/router_level2_7 | Received flit 9 from channel at input 1.
6 | network_0/router_level2_0 | Adding flit 5 to VC 0 at input 0 (state: idle, empty).
6 | network_0/router_level2_0 | Using precomputed lookahead routing information for VC 0 at input 0 (front: 5).
6 | network_0/router_level2_0/buf_0/vc_0 | Changing state from idle to vc_alloc.
6 | network_0/router_level2_0 | Beginning VC allocation for VC 0 at input 0 (front: 5).
6 | network_0/router_level2_0 |   Requesting VC 0 at output 15 (in_pri: 0, out_pri: 0).
6 | network_0/router_level2_0 |   Requesting VC 1 at output 15 (in_pri: 0, out_pri: 0).
6 | network_0/router_level2_0 |   Requesting VC 2 at output 15 (in_pri: 0, out_pri: 0).
6 | network_0/router_level2_0 |   Requesting VC 3 at output 15 (in_pri: 0, out_pri: 0).
6 | network_0/router_level2_0/vc_allocator | Input requests = [ 0 -> [ 60@0 61@0 62@0 63@0 ]  12 -> [ 60@0 61@0 62@0 63@0 ]  ], output requests = [ 60 -> [ 0@0 12@0 ]  61 -> [ 0@0 12@0 ]  62 -> [ 0@0 12@0 ]  63 -> [ 0@0 12@0 ]  ].
6 | network_0/router_level2_0/vc_allocator | Input grants = [ 0 -> 60  ], output grants = [ 60 -> 0  ].
6 | network_0/router_level2_0 | Assigning VC 0 at output 15 to VC 0 at input 0.
6 | network_0/router_level2_0 | Completed VC allocation for VC 0 at input 0 (front: 5).
6 | network_0/router_level2_0 |   Acquiring assigned VC 0 at output 15.
6 | network_0/router_level2_0/buf_0/vc_0 | Changing state from vc_alloc to active.
6 | network_0/router_level2_2 | Adding flit 2 to VC 0 at input 0 (state: idle, empty).
6 | network_0/router_level2_2 | Using precomputed lookahead routing information for VC 0 at input 0 (front: 2).
6 | network_0/router_level2_2/buf_0/vc_0 | Changing state from idle to vc_alloc.
6 | network_0/router_level2_2 | Beginning VC allocation for VC 0 at input 0 (front: 2).
6 | network_0/router_level2_2 |   Requesting VC 0 at output 13 (in_pri: 0, out_pri: 0).
6 | network_0/router_level2_2 |   Requesting VC 1 at output 13 (in_pri: 0, out_pri: 0).
6 | network_0/router_level2_2 |   Requesting VC 2 at output 13 (in_pri: 0, out_pri: 0).
6 | network_0/router_level2_2 |   Requesting VC 3 at output 13 (in_pri: 0, out_pri: 0).
6 | network_0/router_level2_2/vc_allocator | Input requests = [ 0 -> [ 52@0 53@0 54@0 55@0 ]  4 -> [ 48@0 49@0 50@0 51@0 ]  8 -> [ 60@0 61@0 62@0 63@0 ]  12 -> [ 56@0 57@0 58@0 59@0 ]  24 -> [ 56@0 57@0 58@0 59@0 ]  28 -> [ 40@0 41@0 42@0 43@0 ]  ], output requests = [ 40 -> [ 28@0 ]  41 -> [ 28@0 ]  42 -> [ 28@0 ]  43 -> [ 28@0 ]  48 -> [ 4@0 ]  49 -> [ 4@0 ]  50 -> [ 4@0 ]  51 -> [ 4@0 ]  52 -> [ 0@0 ]  53 -> [ 0@0 ]  54 -> [ 0@0 ]  55 -> [ 0@0 ]  56 -> [ 12@0 24@0 ]  57 -> [ 12@0 24@0 ]  58 -> [ 12@0 24@0 ]  59 -> [ 12@0 24@0 ]  60 -> [ 8@0 ]  61 -> [ 8@0 ]  62 -> [ 8@0 ]  63 -> [ 8@0 ]  ].
6 | network_0/router_level2_2/vc_allocator | Input grants = [ 0 -> 52  4 -> 48  8 -> 60  12 -> 56  28 -> 40  ], output grants = [ 40 -> 28  48 -> 4  52 -> 0  56 -> 12  60 -> 8  ].
6 | network_0/router_level2_2 | Assigning VC 0 at output 13 to VC 0 at input 0.
6 | network_0/router_level2_2 | Completed VC allocation for VC 0 at input 0 (front: 2).
6 | network_0/router_level2_2 |   Acquiring assigned VC 0 at output 13.
6 | network_0/router_level2_2/buf_0/vc_0 | Changing state from vc_alloc to active.
6 | network_0/router_level2_3 | Adding flit 10 to VC 0 at input 1 (state: idle, empty).
6 | network_0/router_level2_3 | Using precomputed lookahead routing information for VC 0 at input 1 (front: 10).
6 | network_0/router_level2_3/buf_1/vc_0 | Changing state from idle to vc_alloc.
6 | network_0/router_level2_3 | Beginning VC allocation for VC 0 at input 1 (front: 10).
6 | network_0/router_level2_3 |   Requesting VC 0 at output 11 (in_pri: 0, out_pri: 0).
6 | network_0/router_level2_3 |   Requesting VC 1 at output 11 (in_pri: 0, out_pri: 0).
6 | network_0/router_level2_3 |   Requesting VC 2 at output 11 (in_pri: 0, out_pri: 0).
6 | network_0/router_level2_3 |   Requesting VC 3 at output 11 (in_pri: 0, out_pri: 0).
6 | network_0/router_level2_3/vc_allocator | Input requests = [ 4 -> [ 44@0 45@0 46@0 47@0 ]  8 -> [ 56@0 57@0 58@0 59@0 ]  12 -> [ 36@0 37@0 38@0 39@0 ]  16 -> [ 48@0 49@0 50@0 51@0 ]  24 -> [ 44@0 45@0 46@0 47@0 ]  28 -> [ 60@0 61@0 62@0 63@0 ]  ], output requests = [ 36 -> [ 12@0 ]  37 -> [ 12@0 ]  38 -> [ 12@0 ]  39 -> [ 12@0 ]  44 -> [ 4@0 24@0 ]  45 -> [ 4@0 24@0 ]  46 -> [ 4@0 24@0 ]  47 -> [ 4@0 24@0 ]  48 -> [ 16@0 ]  49 -> [ 16@0 ]  50 -> [ 16@0 ]  51 -> [ 16@0 ]  56 -> [ 8@0 ]  57 -> [ 8@0 ]  58 -> [ 8@0 ]  59 -> [ 8@0 ]  60 -> [ 28@0 ]  61 -> [ 28@0 ]  62 -> [ 28@0 ]  63 -> [ 28@0 ]  ].
6 | network_0/router_level2_3/vc_allocator | Input grants = [ 4 -> 44  8 -> 56  12 -> 36  16 -> 48  28 -> 60  ], output grants = [ 36 -> 12  44 -> 4  48 -> 16  56 -> 8  60 -> 28  ].
6 | network_0/router_level2_3 | Assigning VC 0 at output 11 to VC 0 at input 1.
6 | network_0/router_level2_3 | Completed VC allocation for VC 0 at input 1 (front: 10).
6 | network_0/router_level2_3 |   Acquiring assigned VC 0 at output 11.
6 | network_0/router_level2_3/buf_1/vc_0 | Changing state from vc_alloc to active.
6 | network_0/router_level2_4 | Adding flit 7 to VC 0 at input 0 (state: idle, empty).
6 | network_0/router_level2_4 | Using precomputed lookahead routing information for VC 0 at input 0 (front: 7).
6 | network_0/router_level2_4/buf_0/vc_0 | Changing state from idle to vc_alloc.
6 | network_0/router_level2_4 | Beginning VC allocation for VC 0 at input 0 (front: 7).
6 | network_0/router_level2_4 |   Requesting VC 0 at output 15 (in_pri: 0, out_pri: 0).
6 | network_0/router_level2_4 |   Requesting VC 1 at output 15 (in_pri: 0, out_pri: 0).
6 | network_0/router_level2_4 |   Requesting VC 2 at output 15 (in_pri: 0, out_pri: 0).
6 | network_0/router_level2_4 |   Requesting VC 3 at output 15 (in_pri: 0, out_pri: 0).
6 | network_0/router_level2_4/vc_allocator | Input requests = [ 0 -> [ 60@0 61@0 62@0 63@0 ]  8 -> [ 48@0 49@0 50@0 51@0 ]  16 -> [ 32@0 33@0 34@0 35@0 ]  ], output requests = [ 32 -> [ 16@0 ]  33 -> [ 16@0 ]  34 -> [ 16@0 ]  35 -> [ 16@0 ]  48 -> [ 8@0 ]  49 -> [ 8@0 ]  50 -> [ 8@0 ]  51 -> [ 8@0 ]  60 -> [ 0@0 ]  61 -> [ 0@0 ]  62 -> [ 0@0 ]  63 -> [ 0@0 ]  ].
6 | network_0/router_level2_4/vc_allocator | Input grants = [ 0 -> 60  8 -> 48  16 -> 32  ], output grants = [ 32 -> 16  48 -> 8  60 -> 0  ].
6 | network_0/router_level2_4 | Assigning VC 0 at output 15 to VC 0 at input 0.
6 | network_0/router_level2_4 | Completed VC allocation for VC 0 at input 0 (front: 7).
6 | network_0/router_level2_4 |   Acquiring assigned VC 0 at output 15.
6 | network_0/router_level2_4/buf_0/vc_0 | Changing state from vc_alloc to active.
6 | network_0/router_level2_5 | Adding flit 3 to VC 0 at input 0 (state: idle, empty).
6 | network_0/router_level2_5 | Using precomputed lookahead routing information for VC 0 at input 0 (front: 3).
6 | network_0/router_level2_5/buf_0/vc_0 | Changing state from idle to vc_alloc.
6 | network_0/router_level2_5 | Adding flit 8 to VC 0 at input 1 (state: idle, empty).
6 | network_0/router_level2_5 | Using precomputed lookahead routing information for VC 0 at input 1 (front: 8).
6 | network_0/router_level2_5/buf_1/vc_0 | Changing state from idle to vc_alloc.
6 | network_0/router_level2_5 | Beginning VC allocation for VC 0 at input 0 (front: 3).
6 | network_0/router_level2_5 |   Requesting VC 0 at output 8 (in_pri: 0, out_pri: 0).
6 | network_0/router_level2_5 |   Requesting VC 1 at output 8 (in_pri: 0, out_pri: 0).
6 | network_0/router_level2_5 |   Requesting VC 2 at output 8 (in_pri: 0, out_pri: 0).
6 | network_0/router_level2_5 |   Requesting VC 3 at output 8 (in_pri: 0, out_pri: 0).
6 | network_0/router_level2_5 | Beginning VC allocation for VC 0 at input 1 (front: 8).
6 | network_0/router_level2_5 |   Requesting VC 0 at output 10 (in_pri: 0, out_pri: 0).
6 | network_0/router_level2_5 |   Requesting VC 1 at output 10 (in_pri: 0, out_pri: 0).
6 | network_0/router_level2_5 |   Requesting VC 2 at output 10 (in_pri: 0, out_pri: 0).
6 | network_0/router_level2_5 |   Requesting VC 3 at output 10 (in_pri: 0, out_pri: 0).
6 | network_0/router_level2_5/vc_allocator | Input requests = [ 0 -> [ 32@0 33@0 34@0 35@0 ]  4 -> [ 40@0 41@0 42@0 43@0 ]  12 -> [ 52@0 53@0 54@0 55@0 ]  20 -> [ 40@0 41@0 42@0 43@0 ]  24 -> [ 36@0 37@0 38@0 39@0 ]  28 -> [ 60@0 61@0 62@0 63@0 ]  ], output requests = [ 32 -> [ 0@0 ]  33 -> [ 0@0 ]  34 -> [ 0@0 ]  35 -> [ 0@0 ]  36 -> [ 24@0 ]  37 -> [ 24@0 ]  38 -> [ 24@0 ]  39 -> [ 24@0 ]  40 -> [ 4@0 20@0 ]  41 -> [ 4@0 20@0 ]  42 -> [ 4@0 20@0 ]  43 -> [ 4@0 20@0 ]  52 -> [ 12@0 ]  53 -> [ 12@0 ]  54 -> [ 12@0 ]  55 -> [ 12@0 ]  60 -> [ 28@0 ]  61 -> [ 28@0 ]  62 -> [ 28@0 ]  63 -> [ 28@0 ]  ].
6 | network_0/router_level2_5/vc_allocator | Input grants = [ 0 -> 32  4 -> 40  12 -> 52  24 -> 36  28 -> 60  ], output grants = [ 32 -> 0  36 -> 24  40 -> 4  52 -> 12  60 -> 28  ].
6 | network_0/router_level2_5 | Assigning VC 0 at output 8 to VC 0 at input 0.
6 | network_0/router_level2_5 | Assigning VC 0 at output 10 to VC 0 at input 1.
6 | network_0/router_level2_5 | Completed VC allocation for VC 0 at input 0 (front: 3).
6 | network_0/router_level2_5 |   Acquiring assigned VC 0 at output 8.
6 | network_0/router_level2_5/buf_0/vc_0 | Changing state from vc_alloc to active.
6 | network_0/router_level2_5 | Completed VC allocation for VC 0 at input 1 (front: 8).
6 | network_0/router_level2_5 |   Acquiring assigned VC 0 at output 10.
6 | network_0/router_level2_5/buf_1/vc_0 | Changing state from vc_alloc to active.
6 | network_0/router_level2_6 | Adding flit 1 to VC 0 at input 0 (state: idle, empty).
6 | network_0/router_level2_6 | Using precomputed lookahead routing information for VC 0 at input 0 (front: 1).
6 | network_0/router_level2_6/buf_0/vc_0 | Changing state from idle to vc_alloc.
6 | network_0/router_level2_6 | Beginning VC allocation for VC 0 at input 0 (front: 1).
6 | network_0/router_level2_6 |   Requesting VC 0 at output 8 (in_pri: 0, out_pri: 0).
6 | network_0/router_level2_6 |   Requesting VC 1 at output 8 (in_pri: 0, out_pri: 0).
6 | network_0/router_level2_6 |   Requesting VC 2 at output 8 (in_pri: 0, out_pri: 0).
6 | network_0/router_level2_6 |   Requesting VC 3 at output 8 (in_pri: 0, out_pri: 0).
6 | network_0/router_level2_6/vc_allocator | Input requests = [ 0 -> [ 32@0 33@0 34@0 35@0 ]  8 -> [ 56@0 57@0 58@0 59@0 ]  12 -> [ 52@0 53@0 54@0 55@0 ]  20 -> [ 60@0 61@0 62@0 63@0 ]  28 -> [ 60@0 61@0 62@0 63@0 ]  ], output requests = [ 32 -> [ 0@0 ]  33 -> [ 0@0 ]  34 -> [ 0@0 ]  35 -> [ 0@0 ]  52 -> [ 12@0 ]  53 -> [ 12@0 ]  54 -> [ 12@0 ]  55 -> [ 12@0 ]  56 -> [ 8@0 ]  57 -> [ 8@0 ]  58 -> [ 8@0 ]  59 -> [ 8@0 ]  60 -> [ 20@0 28@0 ]  61 -> [ 20@0 28@0 ]  62 -> [ 20@0 28@0 ]  63 -> [ 20@0 28@0 ]  ].
6 | network_0/router_level2_6/vc_allocator | Input grants = [ 0 -> 32  8 -> 56  12 -> 52  20 -> 60  ], output grants = [ 32 -> 0  52 -> 12  56 -> 8  60 -> 20  ].
6 | network_0/router_level2_6 | Assigning VC 0 at output 8 to VC 0 at input 0.
6 | network_0/router_level2_6 | Completed VC allocation for VC 0 at input 0 (front: 1).
6 | network_0/router_level2_6 |   Acquiring assigned VC 0 at output 8.
6 | network_0/router_level2_6/buf_0/vc_0 | Changing state from vc_alloc to active.
6 | network_0/router_level2_7 | Adding flit 9 to VC 0 at input 1 (state: idle, empty).
6 | network_0/router_level2_7 | Using precomputed lookahead routing information for VC 0 at input 1 (front: 9).
6 | network_0/router_level2_7/buf_1/vc_0 | Changing state from idle to vc_alloc.
6 | network_0/router_level2_7 | Beginning VC allocation for VC 0 at input 1 (front: 9).
6 | network_0/router_level2_7 |   Requesting VC 0 at output 12 (in_pri: 0, out_pri: 0).
6 | network_0/router_level2_7 |   Requesting VC 1 at output 12 (in_pri: 0, out_pri: 0).
6 | network_0/router_level2_7 |   Requesting VC 2 at output 12 (in_pri: 0, out_pri: 0).
6 | network_0/router_level2_7 |   Requesting VC 3 at output 12 (in_pri: 0, out_pri: 0).
6 | network_0/router_level2_7/vc_allocator | Input requests = [ 4 -> [ 48@0 49@0 50@0 51@0 ]  8 -> [ 52@0 53@0 54@0 55@0 ]  12 -> [ 48@0 49@0 50@0 51@0 ]  16 -> [ 52@0 53@0 54@0 55@0 ]  20 -> [ 48@0 49@0 50@0 51@0 ]  24 -> [ 56@0 57@0 58@0 59@0 ]  28 -> [ 40@0 41@0 42@0 43@0 ]  ], output requests = [ 40 -> [ 28@0 ]  41 -> [ 28@0 ]  42 -> [ 28@0 ]  43 -> [ 28@0 ]  48 -> [ 4@0 12@0 20@0 ]  49 -> [ 4@0 12@0 20@0 ]  50 -> [ 4@0 12@0 20@0 ]  51 -> [ 4@0 12@0 20@0 ]  52 -> [ 8@0 16@0 ]  53 -> [ 8@0 16@0 ]  54 -> [ 8@0 16@0 ]  55 -> [ 8@0 16@0 ]  56 -> [ 24@0 ]  57 -> [ 24@0 ]  58 -> [ 24@0 ]  59 -> [ 24@0 ]  ].
6 | network_0/router_level2_7/vc_allocator | Input grants = [ 4 -> 48  8 -> 52  24 -> 56  28 -> 40  ], output grants = [ 40 -> 28  48 -> 4  52 -> 8  56 -> 24  ].
6 | network_0/router_level2_7 | Assigning VC 0 at output 12 to VC 0 at input 1.
6 | network_0/router_level2_7 | Completed VC allocation for VC 0 at input 1 (front: 9).
6 | network_0/router_level2_7 |   Acquiring assigned VC 0 at output 12.
6 | network_0/router_level2_7/buf_1/vc_0 | Changing state from vc_alloc to active.
6 | network_0/network_0_fchan_20485 | Completed channel traversal for flit 4.
6 | network_0/network_0_fchan_20486 | Completed channel traversal for flit 6.
7 | network_0/router_level2_5 | Received flit 4 from channel at input 0.
7 | network_0/router_level2_6 | Received flit 6 from channel at input 0.
7 | network_0/router_level2_0 | Beginning switch allocation for VC 0 at input 0 (front: 5).
7 | network_0/router_level2_0 |   Requesting output 15.0 (non-spec, pri: 0).
7 | network_0/router_level2_0/sw_allocator | Input requests = [ 0 -> [ 15@0 ]  ], output requests = [ 15 -> [ 0@0 ]  ].
7 | network_0/router_level2_0/sw_allocator | Input grants = [ 0 -> 15  ], output grants = [ 15 -> 0  ].
7 | network_0/router_level2_0 | Assigning output 15.0 to VC 0 at input 0.0.
7 | network_0/router_level2_0 | Completed switch allocation for VC 0 at input 0 (front: 5).
7 | network_0/router_level2_0 |   Scheduling switch connection from input 0.0 to output 15.0.
7 | network_0/router_level2_0 | Updating lookahead routing information for flit 5.
7 | network_0/router_level2_2 | Beginning switch allocation for VC 0 at input 0 (front: 2).
7 | network_0/router_level2_2 |   Requesting output 13.0 (non-spec, pri: 0).
7 | network_0/router_level2_2/sw_allocator | Input requests = [ 0 -> [ 13@0 ]  1 -> [ 12@0 ]  2 -> [ 15@0 ]  3 -> [ 14@0 ]  7 -> [ 10@0 ]  ], output requests = [ 10 -> [ 7@0 ]  12 -> [ 1@0 ]  13 -> [ 0@0 ]  14 -> [ 3@0 ]  15 -> [ 2@0 ]  ].
7 | network_0/router_level2_2/sw_allocator | Input grants = [ 0 -> 13  1 -> 12  2 -> 15  3 -> 14  7 -> 10  ], output grants = [ 10 -> 7  12 -> 1  13 -> 0  14 -> 3  15 -> 2  ].
7 | network_0/router_level2_2 | Assigning output 13.0 to VC 0 at input 0.0.
7 | network_0/router_level2_2 | Completed switch allocation for VC 0 at input 0 (front: 2).
7 | network_0/router_level2_2 |   Scheduling switch connection from input 0.0 to output 13.0.
7 | network_0/router_level2_2 | Updating lookahead routing information for flit 2.
7 | network_0/router_level2_3 | Beginning switch allocation for VC 0 at input 1 (front: 10).
7 | network_0/router_level2_3 |   Requesting output 11.0 (non-spec, pri: 0).
7 | network_0/router_level2_3/sw_allocator | Input requests = [ 1 -> [ 11@0 ]  2 -> [ 14@0 ]  3 -> [ 9@0 ]  4 -> [ 12@0 ]  7 -> [ 15@0 ]  ], output requests = [ 9 -> [ 3@0 ]  11 -> [ 1@0 ]  12 -> [ 4@0 ]  14 -> [ 2@0 ]  15 -> [ 7@0 ]  ].
7 | network_0/router_level2_3/sw_allocator | Input grants = [ 1 -> 11  2 -> 14  3 -> 9  4 -> 12  7 -> 15  ], output grants = [ 9 -> 3  11 -> 1  12 -> 4  14 -> 2  15 -> 7  ].
7 | network_0/router_level2_3 | Assigning output 11.0 to VC 0 at input 1.0.
7 | network_0/router_level2_3 | Completed switch allocation for VC 0 at input 1 (front: 10).
7 | network_0/router_level2_3 |   Scheduling switch connection from input 1.0 to output 11.0.
7 | network_0/router_level2_3 | Updating lookahead routing information for flit 10.
7 | network_0/router_level2_4 | Beginning switch allocation for VC 0 at input 0 (front: 7).
7 | network_0/router_level2_4 |   Requesting output 15.0 (non-spec, pri: 0).
7 | network_0/router_level2_4/sw_allocator | Input requests = [ 0 -> [ 15@0 ]  2 -> [ 12@0 ]  4 -> [ 8@0 ]  ], output requests = [ 8 -> [ 4@0 ]  12 -> [ 2@0 ]  15 -> [ 0@0 ]  ].
7 | network_0/router_level2_4/sw_allocator | Input grants = [ 0 -> 15  2 -> 12  4 -> 8  ], output grants = [ 8 -> 4  12 -> 2  15 -> 0  ].
7 | network_0/router_level2_4 | Assigning output 15.0 to VC 0 at input 0.0.
7 | network_0/router_level2_4 | Completed switch allocation for VC 0 at input 0 (front: 7).
7 | network_0/router_level2_4 |   Scheduling switch connection from input 0.0 to output 15.0.
7 | network_0/router_level2_4 | Updating lookahead routing information for flit 7.
7 | network_0/router_level2_5 | Adding flit 4 to VC 1 at input 0 (state: idle, empty).
7 | network_0/router_level2_5 | Using precomputed lookahead routing information for VC 1 at input 0 (front: 4).
7 | network_0/router_level2_5/buf_0/vc_1 | Changing state from idle to vc_alloc.
7 | network_0/router_level2_5 | Beginning VC allocation for VC 1 at input 0 (front: 4).
7 | network_0/router_level2_5 |   VC 0 at output 15 is in use by VC 0 at input 7 (front flit: 55).
7 | network_0/router_level2_5 |   Requesting VC 1 at output 15 (in_pri: 0, out_pri: 0).
7 | network_0/router_level2_5 |   Requesting VC 2 at output 15 (in_pri: 0, out_pri: 0).
7 | network_0/router_level2_5 |   Requesting VC 3 at output 15 (in_pri: 0, out_pri: 0).
7 | network_0/router_level2_5/vc_allocator | Input requests = [ 1 -> [ 61@0 62@0 63@0 ]  8 -> [ 61@0 62@0 63@0 ]  13 -> [ 61@0 62@0 63@0 ]  16 -> [ 37@0 38@0 39@0 ]  20 -> [ 41@0 42@0 43@0 ]  21 -> [ 53@0 54@0 55@0 ]  ], output requests = [ 37 -> [ 16@0 ]  38 -> [ 16@0 ]  39 -> [ 16@0 ]  41 -> [ 20@0 ]  42 -> [ 20@0 ]  43 -> [ 20@0 ]  53 -> [ 21@0 ]  54 -> [ 21@0 ]  55 -> [ 21@0 ]  61 -> [ 1@0 8@0 13@0 ]  62 -> [ 1@0 8@0 13@0 ]  63 -> [ 1@0 8@0 13@0 ]  ].
7 | network_0/router_level2_5/vc_allocator | Input grants = [ 1 -> 61  16 -> 37  20 -> 41  21 -> 53  ], output grants = [ 37 -> 16  41 -> 20  53 -> 21  61 -> 1  ].
7 | network_0/router_level2_5 | Assigning VC 1 at output 15 to VC 1 at input 0.
7 | network_0/router_level2_5 | Beginning switch allocation for VC 0 at input 0 (front: 3).
7 | network_0/router_level2_5 |   Requesting output 8.0 (non-spec, pri: 0).
7 | network_0/router_level2_5 | Beginning switch allocation for VC 0 at input 1 (front: 8).
7 | network_0/router_level2_5 |   Requesting output 10.0 (non-spec, pri: 0).
7 | network_0/router_level2_5/sw_allocator | Input requests = [ 0 -> [ 8@0 ]  1 -> [ 10@0 ]  3 -> [ 13@0 ]  6 -> [ 9@0 ]  7 -> [ 15@0 ]  ], output requests = [ 8 -> [ 0@0 ]  9 -> [ 6@0 ]  10 -> [ 1@0 ]  13 -> [ 3@0 ]  15 -> [ 7@0 ]  ].
7 | network_0/router_level2_5/sw_allocator | Input grants = [ 0 -> 8  1 -> 10  3 -> 13  6 -> 9  7 -> 15  ], output grants = [ 8 -> 0  9 -> 6  10 -> 1  13 -> 3  15 -> 7  ].
7 | network_0/router_level2_5 | Assigning output 8.0 to VC 0 at input 0.0.
7 | network_0/router_level2_5 | Assigning output 10.0 to VC 0 at input 1.0.
7 | network_0/router_level2_5 | Completed VC allocation for VC 1 at input 0 (front: 4).
7 | network_0/router_level2_5 |   Acquiring assigned VC 1 at output 15.
7 | network_0/router_level2_5/buf_0/vc_1 | Changing state from vc_alloc to active.
7 | network_0/router_level2_5 | Completed switch allocation for VC 0 at input 0 (front: 3).
7 | network_0/router_level2_5 |   Scheduling switch connection from input 0.0 to output 8.0.
7 | network_0/router_level2_5 | Updating lookahead routing information for flit 3.
7 | network_0/router_level2_5 | Completed switch allocation for VC 0 at input 1 (front: 8).
7 | network_0/router_level2_5 |   Scheduling switch connection from input 1.0 to output 10.0.
7 | network_0/router_level2_5 | Updating lookahead routing information for flit 8.
7 | network_0/router_level2_6 | Adding flit 6 to VC 1 at input 0 (state: idle, empty).
7 | network_0/router_level2_6 | Using precomputed lookahead routing information for VC 1 at input 0 (front: 6).
7 | network_0/router_level2_6/buf_0/vc_1 | Changing state from idle to vc_alloc.
7 | network_0/router_level2_6 | Beginning VC allocation for VC 1 at input 0 (front: 6).
7 | network_0/router_level2_6 |   Requesting VC 0 at output 12 (in_pri: 0, out_pri: 0).
7 | network_0/router_level2_6 |   Requesting VC 1 at output 12 (in_pri: 0, out_pri: 0).
7 | network_0/router_level2_6 |   Requesting VC 2 at output 12 (in_pri: 0, out_pri: 0).
7 | network_0/router_level2_6 |   Requesting VC 3 at output 12 (in_pri: 0, out_pri: 0).
7 | network_0/router_level2_6/vc_allocator | Input requests = [ 1 -> [ 48@0 49@0 50@0 51@0 ]  13 -> [ 40@0 41@0 42@0 43@0 ]  16 -> [ 40@0 41@0 42@0 43@0 ]  28 -> [ 61@0 62@0 63@0 ]  29 -> [ 57@0 58@0 59@0 ]  ], output requests = [ 40 -> [ 13@0 16@0 ]  41 -> [ 13@0 16@0 ]  42 -> [ 13@0 16@0 ]  43 -> [ 13@0 16@0 ]  48 -> [ 1@0 ]  49 -> [ 1@0 ]  50 -> [ 1@0 ]  51 -> [ 1@0 ]  57 -> [ 29@0 ]  58 -> [ 29@0 ]  59 -> [ 29@0 ]  61 -> [ 28@0 ]  62 -> [ 28@0 ]  63 -> [ 28@0 ]  ].
7 | network_0/router_level2_6/vc_allocator | Input grants = [ 1 -> 48  13 -> 40  28 -> 61  29 -> 57  ], output grants = [ 40 -> 13  48 -> 1  57 -> 29  61 -> 28  ].
7 | network_0/router_level2_6 | Assigning VC 0 at output 12 to VC 1 at input 0.
7 | network_0/router_level2_6 | Beginning switch allocation for VC 0 at input 0 (front: 1).
7 | network_0/router_level2_6 |   Requesting output 8.0 (non-spec, pri: 0).
7 | network_0/router_level2_6/sw_allocator | Input requests = [ 0 -> [ 8@0 ]  2 -> [ 14@0 ]  3 -> [ 13@0 ]  5 -> [ 15@0 ]  ], output requests = [ 8 -> [ 0@0 ]  13 -> [ 3@0 ]  14 -> [ 2@0 ]  15 -> [ 5@0 ]  ].
7 | network_0/router_level2_6/sw_allocator | Input grants = [ 0 -> 8  2 -> 14  3 -> 13  5 -> 15  ], output grants = [ 8 -> 0  13 -> 3  14 -> 2  15 -> 5  ].
7 | network_0/router_level2_6 | Assigning output 8.0 to VC 0 at input 0.0.
7 | network_0/router_level2_6 | Completed VC allocation for VC 1 at input 0 (front: 6).
7 | network_0/router_level2_6 |   Acquiring assigned VC 0 at output 12.
7 | network_0/router_level2_6/buf_0/vc_1 | Changing state from vc_alloc to active.
7 | network_0/router_level2_6 | Completed switch allocation for VC 0 at input 0 (front: 1).
7 | network_0/router_level2_6 |   Scheduling switch connection from input 0.0 to output 8.0.
7 | network_0/router_level2_6 | Updating lookahead routing information for flit 1.
7 | network_0/router_level2_7 | Beginning switch allocation for VC 0 at input 1 (front: 9).
7 | network_0/router_level2_7 |   Requesting output 12.0 (non-spec, pri: 0).
7 | network_0/router_level2_7/sw_allocator | Input requests = [ 1 -> [ 12@0 ]  2 -> [ 13@0 ]  6 -> [ 14@0 ]  7 -> [ 10@0 ]  ], output requests = [ 10 -> [ 7@0 ]  12 -> [ 1@0 ]  13 -> [ 2@0 ]  14 -> [ 6@0 ]  ].
7 | network_0/router_level2_7/sw_allocator | Input grants = [ 1 -> 12  2 -> 13  6 -> 14  7 -> 10  ], output grants = [ 10 -> 7  12 -> 1  13 -> 2  14 -> 6  ].
7 | network_0/router_level2_7 | Assigning output 12.0 to VC 0 at input 1.0.
7 | network_0/router_level2_7 | Completed switch allocation for VC 0 at input 1 (front: 9).
7 | network_0/router_level2_7 |   Scheduling switch connection from input 1.0 to output 12.0.
7 | network_0/router_level2_7 | Updating lookahead routing information for flit 9.
8 | network_0/router_level2_0 | Beginning crossbar traversal for flit 5 from input 0.0 to output 15.0.
8 | network_0/router_level2_0 | Completed crossbar traversal for flit 5 from input 0.0 to output 15.0.
8 | network_0/router_level2_0 | Buffering flit 5 at output 15.
8 | network_0/router_level2_2 | Beginning crossbar traversal for flit 2 from input 0.0 to output 13.0.
8 | network_0/router_level2_2 | Completed crossbar traversal for flit 2 from input 0.0 to output 13.0.
8 | network_0/router_level2_2 | Buffering flit 2 at output 13.
8 | network_0/router_level2_3 | Beginning crossbar traversal for flit 10 from input 1.0 to output 11.0.
8 | network_0/router_level2_3 | Completed crossbar traversal for flit 10 from input 1.0 to output 11.0.
8 | network_0/router_level2_3 | Buffering flit 10 at output 11.
8 | network_0/router_level2_4 | Beginning crossbar traversal for flit 7 from input 0.0 to output 15.0.
8 | network_0/router_level2_4 | Completed crossbar traversal for flit 7 from input 0.0 to output 15.0.
8 | network_0/router_level2_4 | Buffering flit 7 at output 15.
8 | network_0/router_level2_5 | Beginning switch allocation for VC 1 at input 0 (front: 4).
8 | network_0/router_level2_5 |   Requesting output 15.0 (non-spec, pri: 0).
8 | network_0/router_level2_5/sw_allocator | Input requests = [ 0 -> [ 15@0 ]  4 -> [ 9@0 ]  5 -> [ 10@0 13@0 ]  ], output requests = [ 9 -> [ 4@0 ]  10 -> [ 5@0 ]  13 -> [ 5@0 ]  15 -> [ 0@0 ]  ].
8 | network_0/router_level2_5/sw_allocator | Input grants = [ 0 -> 15  4 -> 9  5 -> 10  ], output grants = [ 9 -> 4  10 -> 5  15 -> 0  ].
8 | network_0/router_level2_5 | Assigning output 15.0 to VC 1 at input 0.0.
8 | network_0/router_level2_5 | Beginning crossbar traversal for flit 3 from input 0.0 to output 8.0.
8 | network_0/router_level2_5 | Beginning crossbar traversal for flit 8 from input 1.0 to output 10.0.
8 | network_0/router_level2_5 | Completed switch allocation for VC 1 at input 0 (front: 4).
8 | network_0/router_level2_5 |   Scheduling switch connection from input 0.0 to output 15.0.
8 | network_0/router_level2_5 | Updating lookahead routing information for flit 4.
8 | network_0/router_level2_5 | Completed crossbar traversal for flit 3 from input 0.0 to output 8.0.
8 | network_0/router_level2_5 | Buffering flit 3 at output 8.
8 | network_0/router_level2_5 | Completed crossbar traversal for flit 8 from input 1.0 to output 10.0.
8 | network_0/router_level2_5 | Buffering flit 8 at output 10.
8 | network_0/router_level2_6 | Beginning switch allocation for VC 1 at input 0 (front: 6).
8 | network_0/router_level2_6 |   Requesting output 12.0 (non-spec, pri: 0).
8 | network_0/router_level2_6/sw_allocator | Input requests = [ 0 -> [ 12@0 ]  3 -> [ 10@0 ]  7 -> [ 14@0 15@0 ]  ], output requests = [ 10 -> [ 3@0 ]  12 -> [ 0@0 ]  14 -> [ 7@0 ]  15 -> [ 7@0 ]  ].
8 | network_0/router_level2_6/sw_allocator | Input grants = [ 0 -> 12  3 -> 10  7 -> 14  ], output grants = [ 10 -> 3  12 -> 0  14 -> 7  ].
8 | network_0/router_level2_6 | Assigning output 12.0 to VC 1 at input 0.0.
8 | network_0/router_level2_6 | Beginning crossbar traversal for flit 1 from input 0.0 to output 8.0.
8 | network_0/router_level2_6 | Completed switch allocation for VC 1 at input 0 (front: 6).
8 | network_0/router_level2_6 |   Scheduling switch connection from input 0.0 to output 12.0.
8 | network_0/router_level2_6 | Updating lookahead routing information for flit 6.
8 | network_0/router_level2_6 | Completed crossbar traversal for flit 1 from input 0.0 to output 8.0.
8 | network_0/router_level2_6 | Buffering flit 1 at output 8.
8 | network_0/router_level2_7 | Beginning crossbar traversal for flit 9 from input 1.0 to output 12.0.
8 | network_0/router_level2_7 | Completed crossbar traversal for flit 9 from input 1.0 to output 12.0.
8 | network_0/router_level2_7 | Buffering flit 9 at output 12.
8 | network_0/router_level2_0 | Sending flit 5 to channel at output 15.
8 | network_0/router_level2_2 | Sending flit 2 to channel at output 13.
8 | network_0/router_level2_3 | Sending flit 10 to channel at output 11.
8 | network_0/router_level2_4 | Sending flit 7 to channel at output 15.
8 | network_0/router_level2_5 | Sending flit 3 to channel at output 8.
8 | network_0/router_level2_5 | Sending flit 8 to channel at output 10.
8 | network_0/router_level2_6 | Sending flit 1 to channel at output 8.
8 | network_0/router_level2_7 | Sending flit 9 to channel at output 12.
9 | network_0/network_0_fchan_12295 | Beginning channel traversal for flit 5 with delay 1.
9 | network_0/network_0_fchan_12309 | Beginning channel traversal for flit 2 with delay 1.
9 | network_0/network_0_fchan_12315 | Beginning channel traversal for flit 10 with delay 1.
9 | network_0/network_0_fchan_12327 | Beginning channel traversal for flit 7 with delay 1.
9 | network_0/network_0_fchan_12328 | Beginning channel traversal for flit 3 with delay 1.
9 | network_0/network_0_fchan_12330 | Beginning channel traversal for flit 8 with delay 1.
9 | network_0/network_0_fchan_12336 | Beginning channel traversal for flit 1 with delay 1.
9 | network_0/network_0_fchan_12348 | Beginning channel traversal for flit 9 with delay 1.
9 | network_0/router_level2_5 | Beginning crossbar traversal for flit 4 from input 0.0 to output 15.0.
9 | network_0/router_level2_5 | Completed crossbar traversal for flit 4 from input 0.0 to output 15.0.
9 | network_0/router_level2_5 | Buffering flit 4 at output 15.
9 | network_0/router_level2_6 | Beginning crossbar traversal for flit 6 from input 0.0 to output 12.0.
9 | network_0/router_level2_6 | Completed crossbar traversal for flit 6 from input 0.0 to output 12.0.
9 | network_0/router_level2_6 | Buffering flit 6 at output 12.
9 | network_0/network_0_fchan_12295 | Completed channel traversal for flit 5.
9 | network_0/network_0_fchan_12309 | Completed channel traversal for flit 2.
9 | network_0/network_0_fchan_12315 | Completed channel traversal for flit 10.
9 | network_0/network_0_fchan_12327 | Completed channel traversal for flit 7.
9 | network_0/network_0_fchan_12328 | Completed channel traversal for flit 3.
9 | network_0/network_0_fchan_12330 | Completed channel traversal for flit 8.
9 | network_0/network_0_fchan_12336 | Completed channel traversal for flit 1.
9 | network_0/network_0_fchan_12348 | Completed channel traversal for flit 9.
9 | network_0/router_level2_5 | Sending flit 4 to channel at output 15.
9 | network_0/router_level2_6 | Sending flit 6 to channel at output 12.
10 | network_0/network_0_fchan_12335 | Beginning channel traversal for flit 4 with delay 1.
10 | network_0/network_0_fchan_12340 | Beginning channel traversal for flit 6 with delay 1.
10 | network_0/router_level1_5 | Received flit 3 from channel at input 0.
10 | network_0/router_level1_6 | Received flit 1 from channel at input 0.
10 | network_0/router_level1_21 | Received flit 8 from channel at input 0.
10 | network_0/router_level1_27 | Received flit 10 from channel at input 0.
10 | network_0/router_level1_39 | Received flit 9 from channel at input 0.
10 | network_0/router_level1_42 | Received flit 2 from channel at input 0.
10 | network_0/router_level1_56 | Received flit 5 from channel at input 0.
10 | network_0/router_level1_60 | Received flit 7 from channel at input 0.
10 | network_0/router_level1_5 | Adding flit 3 to VC 0 at input 0 (state: idle, empty).
10 | network_0/router_level1_5 | Using precomputed lookahead routing information for VC 0 at input 0 (front: 3).
10 | network_0/router_level1_5/buf_0/vc_0 | Changing state from idle to vc_alloc.
10 | network_0/router_level1_5 | Beginning VC allocation for VC 0 at input 0 (front: 3).
10 | network_0/router_level1_5 |   Requesting VC 0 at output 3 (in_pri: 0, out_pri: 0).
10 | network_0/router_level1_5 |   Requesting VC 1 at output 3 (in_pri: 0, out_pri: 0).
10 | network_0/router_level1_5 |   Requesting VC 2 at output 3 (in_pri: 0, out_pri: 0).
10 | network_0/router_level1_5 |   Requesting VC 3 at output 3 (in_pri: 0, out_pri: 0).
10 | network_0/router_level1_5/vc_allocator | Input requests = [ 0 -> [ 12@0 13@0 14@0 15@0 ]  12 -> [ 60@0 61@0 62@0 63@0 ]  16 -> [ 0@0 1@0 2@0 3@0 ]  20 -> [ 52@0 53@0 54@0 55@0 ]  24 -> [ 56@0 57@0 58@0 59@0 ]  28 -> [ 40@0 41@0 42@0 43@0 ]  ], output requests = [ 0 -> [ 16@0 ]  1 -> [ 16@0 ]  2 -> [ 16@0 ]  3 -> [ 16@0 ]  12 -> [ 0@0 ]  13 -> [ 0@0 ]  14 -> [ 0@0 ]  15 -> [ 0@0 ]  40 -> [ 28@0 ]  41 -> [ 28@0 ]  42 -> [ 28@0 ]  43 -> [ 28@0 ]  52 -> [ 20@0 ]  53 -> [ 20@0 ]  54 -> [ 20@0 ]  55 -> [ 20@0 ]  56 -> [ 24@0 ]  57 -> [ 24@0 ]  58 -> [ 24@0 ]  59 -> [ 24@0 ]  60 -> [ 12@0 ]  61 -> [ 12@0 ]  62 -> [ 12@0 ]  63 -> [ 12@0 ]  ].
10 | network_0/router_level1_5/vc_allocator | Input grants = [ 0 -> 12  12 -> 60  16 -> 0  20 -> 52  24 -> 56  28 -> 40  ], output grants = [ 0 -> 16  12 -> 0  40 -> 28  52 -> 20  56 -> 24  60 -> 12  ].
10 | network_0/router_level1_5 | Assigning VC 0 at output 3 to VC 0 at input 0.
10 | network_0/router_level1_5 | Completed VC allocation for VC 0 at input 0 (front: 3).
10 | network_0/router_level1_5 |   Acquiring assigned VC 0 at output 3.
10 | network_0/router_level1_5/buf_0/vc_0 | Changing state from vc_alloc to active.
10 | network_0/router_level1_6 | Adding flit 1 to VC 0 at input 0 (state: idle, empty).
10 | network_0/router_level1_6 | Using precomputed lookahead routing information for VC 0 at input 0 (front: 1).
10 | network_0/router_level1_6/buf_0/vc_0 | Changing state from idle to vc_alloc.
10 | network_0/router_level1_6 | Beginning VC allocation for VC 0 at input 0 (front: 1).
10 | network_0/router_level1_6 |   Requesting VC 0 at output 1 (in_pri: 0, out_pri: 0).
10 | network_0/router_level1_6 |   Requesting VC 1 at output 1 (in_pri: 0, out_pri: 0).
10 | network_0/router_level1_6 |   Requesting VC 2 at output 1 (in_pri: 0, out_pri: 0).
10 | network_0/router_level1_6 |   Requesting VC 3 at output 1 (in_pri: 0, out_pri: 0).
10 | network_0/router_level1_6/vc_allocator | Input requests = [ 0 -> [ 4@0 5@0 6@0 7@0 ]  12 -> [ 52@0 53@0 54@0 55@0 ]  24 -> [ 48@0 49@0 50@0 51@0 ]  ], output requests = [ 4 -> [ 0@0 ]  5 -> [ 0@0 ]  6 -> [ 0@0 ]  7 -> [ 0@0 ]  48 -> [ 24@0 ]  49 -> [ 24@0 ]  50 -> [ 24@0 ]  51 -> [ 24@0 ]  52 -> [ 12@0 ]  53 -> [ 12@0 ]  54 -> [ 12@0 ]  55 -> [ 12@0 ]  ].
10 | network_0/router_level1_6/vc_allocator | Input grants = [ 0 -> 4  12 -> 52  24 -> 48  ], output grants = [ 4 -> 0  48 -> 24  52 -> 12  ].
10 | network_0/router_level1_6 | Assigning VC 0 at output 1 to VC 0 at input 0.
10 | network_0/router_level1_6 | Completed VC allocation for VC 0 at input 0 (front: 1).
10 | network_0/router_level1_6 |   Acquiring assigned VC 0 at output 1.
10 | network_0/router_level1_6/buf_0/vc_0 | Changing state from vc_alloc to active.
10 | network_0/router_level1_21 | Adding flit 8 to VC 0 at input 0 (state: idle, empty).
10 | network_0/router_level1_21 | Using precomputed lookahead routing information for VC 0 at input 0 (front: 8).
10 | network_0/router_level1_21/buf_0/vc_0 | Changing state from idle to vc_alloc.
10 | network_0/router_level1_21 | Beginning VC allocation for VC 0 at input 0 (front: 8).
10 | network_0/router_level1_21 |   Requesting VC 0 at output 14 (in_pri: 0, out_pri: 0).
10 | network_0/router_level1_21 |   Requesting VC 1 at output 14 (in_pri: 0, out_pri: 0).
10 | network_0/router_level1_21 |   Requesting VC 2 at output 14 (in_pri: 0, out_pri: 0).
10 | network_0/router_level1_21 |   Requesting VC 3 at output 14 (in_pri: 0, out_pri: 0).
10 | network_0/router_level1_21/vc_allocator | Input requests = [ 0 -> [ 56@0 57@0 58@0 59@0 ]  8 -> [ 32@0 33@0 34@0 35@0 ]  16 -> [ 56@0 57@0 58@0 59@0 ]  ], output requests = [ 32 -> [ 8@0 ]  33 -> [ 8@0 ]  34 -> [ 8@0 ]  35 -> [ 8@0 ]  56 -> [ 0@0 16@0 ]  57 -> [ 0@0 16@0 ]  58 -> [ 0@0 16@0 ]  59 -> [ 0@0 16@0 ]  ].
10 | network_0/router_level1_21/vc_allocator | Input grants = [ 0 -> 56  8 -> 32  ], output grants = [ 32 -> 8  56 -> 0  ].
10 | network_0/router_level1_21 | Assigning VC 0 at output 14 to VC 0 at input 0.
10 | network_0/router_level1_21 | Completed VC allocation for VC 0 at input 0 (front: 8).
10 | network_0/router_level1_21 |   Acquiring assigned VC 0 at output 14.
10 | network_0/router_level1_21/buf_0/vc_0 | Changing state from vc_alloc to active.
10 | network_0/router_level1_27 | Adding flit 10 to VC 0 at input 0 (state: idle, empty).
10 | network_0/router_level1_27 | Using precomputed lookahead routing information for VC 0 at input 0 (front: 10).
10 | network_0/router_level1_27/buf_0/vc_0 | Changing state from idle to vc_alloc.
10 | network_0/router_level1_27 | Beginning VC allocation for VC 0 at input 0 (front: 10).
10 | network_0/router_level1_27 |   Requesting VC 0 at output 8 (in_pri: 0, out_pri: 0).
10 | network_0/router_level1_27 |   Requesting VC 1 at output 8 (in_pri: 0, out_pri: 0).
10 | network_0/router_level1_27 |   Requesting VC 2 at output 8 (in_pri: 0, out_pri: 0).
10 | network_0/router_level1_27 |   Requesting VC 3 at output 8 (in_pri: 0, out_pri: 0).
10 | network_0/router_level1_27/vc_allocator | Input requests = [ 0 -> [ 32@0 33@0 34@0 35@0 ]  4 -> [ 44@0 45@0 46@0 47@0 ]  20 -> [ 0@0 1@0 2@0 3@0 ]  28 -> [ 40@0 41@0 42@0 43@0 ]  ], output requests = [ 0 -> [ 20@0 ]  1 -> [ 20@0 ]  2 -> [ 20@0 ]  3 -> [ 20@0 ]  32 -> [ 0@0 ]  33 -> [ 0@0 ]  34 -> [ 0@0 ]  35 -> [ 0@0 ]  40 -> [ 28@0 ]  41 -> [ 28@0 ]  42 -> [ 28@0 ]  43 -> [ 28@0 ]  44 -> [ 4@0 ]  45 -> [ 4@0 ]  46 -> [ 4@0 ]  47 -> [ 4@0 ]  ].
10 | network_0/router_level1_27/vc_allocator | Input grants = [ 0 -> 32  4 -> 44  20 -> 0  28 -> 40  ], output grants = [ 0 -> 20  32 -> 0  40 -> 28  44 -> 4  ].
10 | network_0/router_level1_27 | Assigning VC 0 at output 8 to VC 0 at input 0.
10 | network_0/router_level1_27 | Completed VC allocation for VC 0 at input 0 (front: 10).
10 | network_0/router_level1_27 |   Acquiring assigned VC 0 at output 8.
10 | network_0/router_level1_27/buf_0/vc_0 | Changing state from vc_alloc to active.
10 | network_0/router_level1_39 | Adding flit 9 to VC 0 at input 0 (state: idle, empty).
10 | network_0/router_level1_39 | Using precomputed lookahead routing information for VC 0 at input 0 (front: 9).
10 | network_0/router_level1_39/buf_0/vc_0 | Changing state from idle to vc_alloc.
10 | network_0/router_level1_39 | Beginning VC allocation for VC 0 at input 0 (front: 9).
10 | network_0/router_level1_39 |   Requesting VC 0 at output 14 (in_pri: 0, out_pri: 0).
10 | network_0/router_level1_39 |   Requesting VC 1 at output 14 (in_pri: 0, out_pri: 0).
10 | network_0/router_level1_39 |   Requesting VC 2 at output 14 (in_pri: 0, out_pri: 0).
10 | network_0/router_level1_39 |   Requesting VC 3 at output 14 (in_pri: 0, out_pri: 0).
10 | network_0/router_level1_39/vc_allocator | Input requests = [ 0 -> [ 56@0 57@0 58@0 59@0 ]  24 -> [ 40@0 41@0 42@0 43@0 ]  28 -> [ 48@0 49@0 50@0 51@0 ]  ], output requests = [ 40 -> [ 24@0 ]  41 -> [ 24@0 ]  42 -> [ 24@0 ]  43 -> [ 24@0 ]  48 -> [ 28@0 ]  49 -> [ 28@0 ]  50 -> [ 28@0 ]  51 -> [ 28@0 ]  56 -> [ 0@0 ]  57 -> [ 0@0 ]  58 -> [ 0@0 ]  59 -> [ 0@0 ]  ].
10 | network_0/router_level1_39/vc_allocator | Input grants = [ 0 -> 56  24 -> 40  28 -> 48  ], output grants = [ 40 -> 24  48 -> 28  56 -> 0  ].
10 | network_0/router_level1_39 | Assigning VC 0 at output 14 to VC 0 at input 0.
10 | network_0/router_level1_39 | Completed VC allocation for VC 0 at input 0 (front: 9).
10 | network_0/router_level1_39 |   Acquiring assigned VC 0 at output 14.
10 | network_0/router_level1_39/buf_0/vc_0 | Changing state from vc_alloc to active.
10 | network_0/router_level1_42 | Adding flit 2 to VC 0 at input 0 (state: idle, empty).
10 | network_0/router_level1_42 | Using precomputed lookahead routing information for VC 0 at input 0 (front: 2).
10 | network_0/router_level1_42/buf_0/vc_0 | Changing state from idle to vc_alloc.
10 | network_0/router_level1_42 | Beginning VC allocation for VC 0 at input 0 (front: 2).
10 | network_0/router_level1_42 |   Requesting VC 0 at output 2 (in_pri: 0, out_pri: 0).
10 | network_0/router_level1_42 |   Requesting VC 1 at output 2 (in_pri: 0, out_pri: 0).
10 | network_0/router_level1_42 |   Requesting VC 2 at output 2 (in_pri: 0, out_pri: 0).
10 | network_0/router_level1_42 |   Requesting VC 3 at output 2 (in_pri: 0, out_pri: 0).
10 | network_0/router_level1_42/vc_allocator | Input requests = [ 0 -> [ 8@0 9@0 10@0 11@0 ]  16 -> [ 4@0 5@0 6@0 7@0 ]  20 -> [ 4@0 5@0 6@0 7@0 ]  ], output requests = [ 4 -> [ 16@0 20@0 ]  5 -> [ 16@0 20@0 ]  6 -> [ 16@0 20@0 ]  7 -> [ 16@0 20@0 ]  8 -> [ 0@0 ]  9 -> [ 0@0 ]  10 -> [ 0@0 ]  11 -> [ 0@0 ]  ].
10 | network_0/router_level1_42/vc_allocator | Input grants = [ 0 -> 8  16 -> 4  ], output grants = [ 4 -> 16  8 -> 0  ].
10 | network_0/router_level1_42 | Assigning VC 0 at output 2 to VC 0 at input 0.
10 | network_0/router_level1_42 | Completed VC allocation for VC 0 at input 0 (front: 2).
10 | network_0/router_level1_42 |   Acquiring assigned VC 0 at output 2.
10 | network_0/router_level1_42/buf_0/vc_0 | Changing state from vc_alloc to active.
10 | network_0/router_level1_56 | Adding flit 5 to VC 0 at input 0 (state: idle, empty).
10 | network_0/router_level1_56 | Using precomputed lookahead routing information for VC 0 at input 0 (front: 5).
10 | network_0/router_level1_56/buf_0/vc_0 | Changing state from idle to vc_alloc.
10 | network_0/router_level1_56 | Beginning VC allocation for VC 0 at input 0 (front: 5).
10 | network_0/router_level1_56 |   Requesting VC 0 at output 5 (in_pri: 0, out_pri: 0).
10 | network_0/router_level1_56 |   Requesting VC 1 at output 5 (in_pri: 0, out_pri: 0).
10 | network_0/router_level1_56 |   Requesting VC 2 at output 5 (in_pri: 0, out_pri: 0).
10 | network_0/router_level1_56 |   Requesting VC 3 at output 5 (in_pri: 0, out_pri: 0).
10 | network_0/router_level1_56/vc_allocator | Input requests = [ 0 -> [ 20@0 21@0 22@0 23@0 ]  4 -> [ 56@0 57@0 58@0 59@0 ]  8 -> [ 32@0 33@0 34@0 35@0 ]  12 -> [ 60@0 61@0 62@0 63@0 ]  20 -> [ 32@0 33@0 34@0 35@0 ]  28 -> [ 8@0 9@0 10@0 11@0 ]  ], output requests = [ 8 -> [ 28@0 ]  9 -> [ 28@0 ]  10 -> [ 28@0 ]  11 -> [ 28@0 ]  20 -> [ 0@0 ]  21 -> [ 0@0 ]  22 -> [ 0@0 ]  23 -> [ 0@0 ]  32 -> [ 8@0 20@0 ]  33 -> [ 8@0 20@0 ]  34 -> [ 8@0 20@0 ]  35 -> [ 8@0 20@0 ]  56 -> [ 4@0 ]  57 -> [ 4@0 ]  58 -> [ 4@0 ]  59 -> [ 4@0 ]  60 -> [ 12@0 ]  61 -> [ 12@0 ]  62 -> [ 12@0 ]  63 -> [ 12@0 ]  ].
10 | network_0/router_level1_56/vc_allocator | Input grants = [ 0 -> 20  4 -> 56  8 -> 32  12 -> 60  28 -> 8  ], output grants = [ 8 -> 28  20 -> 0  32 -> 8  56 -> 4  60 -> 12  ].
10 | network_0/router_level1_56 | Assigning VC 0 at output 5 to VC 0 at input 0.
10 | network_0/router_level1_56 | Completed VC allocation for VC 0 at input 0 (front: 5).
10 | network_0/router_level1_56 |   Acquiring assigned VC 0 at output 5.
10 | network_0/router_level1_56/buf_0/vc_0 | Changing state from vc_alloc to active.
10 | network_0/router_level1_60 | Adding flit 7 to VC 0 at input 0 (state: idle, empty).
10 | network_0/router_level1_60 | Using precomputed lookahead routing information for VC 0 at input 0 (front: 7).
10 | network_0/router_level1_60/buf_0/vc_0 | Changing state from idle to vc_alloc.
10 | network_0/router_level1_60 | Beginning VC allocation for VC 0 at input 0 (front: 7).
10 | network_0/router_level1_60 |   Requesting VC 0 at output 7 (in_pri: 0, out_pri: 0).
10 | network_0/router_level1_60 |   Requesting VC 1 at output 7 (in_pri: 0, out_pri: 0).
10 | network_0/router_level1_60 |   Requesting VC 2 at output 7 (in_pri: 0, out_pri: 0).
10 | network_0/router_level1_60 |   Requesting VC 3 at output 7 (in_pri: 0, out_pri: 0).
10 | network_0/router_level1_60/vc_allocator | Input requests = [ 0 -> [ 28@0 29@0 30@0 31@0 ]  12 -> [ 48@0 49@0 50@0 51@0 ]  28 -> [ 16@0 17@0 18@0 19@0 ]  ], output requests = [ 16 -> [ 28@0 ]  17 -> [ 28@0 ]  18 -> [ 28@0 ]  19 -> [ 28@0 ]  28 -> [ 0@0 ]  29 -> [ 0@0 ]  30 -> [ 0@0 ]  31 -> [ 0@0 ]  48 -> [ 12@0 ]  49 -> [ 12@0 ]  50 -> [ 12@0 ]  51 -> [ 12@0 ]  ].
10 | network_0/router_level1_60/vc_allocator | Input grants = [ 0 -> 28  12 -> 48  28 -> 16  ], output grants = [ 16 -> 28  28 -> 0  48 -> 12  ].
10 | network_0/router_level1_60 | Assigning VC 0 at output 7 to VC 0 at input 0.
10 | network_0/router_level1_60 | Completed VC allocation for VC 0 at input 0 (front: 7).
10 | network_0/router_level1_60 |   Acquiring assigned VC 0 at output 7.
10 | network_0/router_level1_60/buf_0/vc_0 | Changing state from vc_alloc to active.
10 | network_0/network_0_fchan_12335 | Completed channel traversal for flit 4.
10 | network_0/network_0_fchan_12340 | Completed channel traversal for flit 6.
11 | network_0/router_level1_38 | Received flit 6 from channel at input 0.
11 | network_0/router_level1_61 | Received flit 4 from channel at input 0.
11 | network_0/router_level1_5 | Beginning switch allocation for VC 0 at input 0 (front: 3).
11 | network_0/router_level1_5 |   Requesting output 3.0 (non-spec, pri: 0).
11 | network_0/router_level1_5/sw_allocator | Input requests = [ 0 -> [ 3@0 ]  3 -> [ 15@0 ]  4 -> [ 0@0 ]  5 -> [ 13@0 ]  6 -> [ 14@0 ]  7 -> [ 10@0 ]  ], output requests = [ 0 -> [ 4@0 ]  3 -> [ 0@0 ]  10 -> [ 7@0 ]  13 -> [ 5@0 ]  14 -> [ 6@0 ]  15 -> [ 3@0 ]  ].
11 | network_0/router_level1_5/sw_allocator | Input grants = [ 0 -> 3  3 -> 15  4 -> 0  5 -> 13  6 -> 14  7 -> 10  ], output grants = [ 0 -> 4  3 -> 0  10 -> 7  13 -> 5  14 -> 6  15 -> 3  ].
11 | network_0/router_level1_5 | Assigning output 3.0 to VC 0 at input 0.0.
11 | network_0/router_level1_5 | Completed switch allocation for VC 0 at input 0 (front: 3).
11 | network_0/router_level1_5 |   Scheduling switch connection from input 0.0 to output 3.0.
11 | network_0/router_level1_5 | Updating lookahead routing information for flit 3.
11 | network_0/router_level1_6 | Beginning switch allocation for VC 0 at input 0 (front: 1).
11 | network_0/router_level1_6 |   Requesting output 1.0 (non-spec, pri: 0).
11 | network_0/router_level1_6/sw_allocator | Input requests = [ 0 -> [ 1@0 ]  3 -> [ 13@0 ]  6 -> [ 12@0 ]  ], output requests = [ 1 -> [ 0@0 ]  12 -> [ 6@0 ]  13 -> [ 3@0 ]  ].
11 | network_0/router_level1_6/sw_allocator | Input grants = [ 0 -> 1  3 -> 13  6 -> 12  ], output grants = [ 1 -> 0  12 -> 6  13 -> 3  ].
11 | network_0/router_level1_6 | Assigning output 1.0 to VC 0 at input 0.0.
11 | network_0/router_level1_6 | Completed switch allocation for VC 0 at input 0 (front: 1).
11 | network_0/router_level1_6 |   Scheduling switch connection from input 0.0 to output 1.0.
[...]
26 | network_0/router_level3_80 |   Acquiring assigned VC 0 at output 0.
26 | network_0/router_level3_80/buf_11/vc_0 | Changing state from vc_alloc to active.
26 | network_0/router_level2_79 | Sending flit 9 to channel at output 0.
27 | network_0/network_0_fchan_17016 | Beginning channel traversal for flit 9 with delay 1.
27 | network_0/router_level2_69 | Using precomputed lookahead routing information for VC 0 at input 10 (front: 8).
27 | network_0/router_level2_69/buf_10/vc_0 | Changing state from active to vc_alloc.
27 | network_0/router_level3_80 | Beginning switch allocation for VC 0 at input 11 (front: 10).
27 | network_0/router_level3_80 |   Requesting output 0.0 (non-spec, pri: 0).
27 | network_0/router_level3_80/sw_allocator | Input requests = [ 0 -> [ 9@0 11@0 12@0 ]  1 -> [ 9@0 11@0 ]  2 -> [ 8@0 ]  3 -> [ 10@0 ]  4 -> [ 11@0 ]  5 -> [ 12@0 13@0 14@0 ]  6 -> [ 9@0 14@0 ]  7 -> [ 8@0 15@0 ]  8 -> [ 5@0 ]  10 -> [ 3@0 ]  11 -> [ 0@0 ]  12 -> [ 4@0 ]  13 -> [ 6@0 ]  ], output requests = [ 0 -> [ 11@0 ]  3 -> [ 10@0 ]  4 -> [ 12@0 ]  5 -> [ 8@0 ]  6 -> [ 13@0 ]  8 -> [ 2@0 7@0 ]  9 -> [ 0@0 1@0 6@0 ]  10 -> [ 3@0 ]  11 -> [ 0@0 1@0 4@0 ]  12 -> [ 0@0 5@0 ]  13 -> [ 5@0 ]  14 -> [ 5@0 6@0 ]  15 -> [ 7@0 ]  ].
27 | network_0/router_level3_80/sw_allocator | Input grants = [ 0 -> 9  1 -> 11  2 -> 8  3 -> 10  5 -> 12  6 -> 14  7 -> 15  8 -> 5  10 -> 3  11 -> 0  12 -> 4  13 -> 6  ], output grants = [ 0 -> 11  3 -> 10  4 -> 12  5 -> 8  6 -> 13  8 -> 2  9 -> 0  10 -> 3  11 -> 1  12 -> 5  14 -> 6  15 -> 7  ].
27 | network_0/router_level3_80 | Assigning output 0.0 to VC 0 at input 11.0.
27 | network_0/router_level3_80 | Completed switch allocation for VC 0 at input 11 (front: 10).
27 | network_0/router_level3_80 |   Scheduling switch connection from input 11.0 to output 0.0.
27 | network_0/network_0_fchan_17016 | Completed channel traversal for flit 9.
28 | network_0/router_level3_72 | Received flit 9 from channel at input 15.
28 | network_0/router_level2_69 | Beginning VC allocation for VC 0 at input 10 (front: 8).
28 | network_0/router_level2_69 |   Requesting VC 0 at output 0 (in_pri: 0, out_pri: 0).
28 | network_0/router_level2_69 |   Requesting VC 1 at output 0 (in_pri: 0, out_pri: 0).
28 | network_0/router_level2_69 |   Requesting VC 2 at output 0 (in_pri: 0, out_pri: 0).
28 | network_0/router_level2_69 |   Requesting VC 3 at output 0 (in_pri: 0, out_pri: 0).
28 | network_0/router_level2_69/vc_allocator | Input requests = [ 1 -> [ 41@0 43@0 ]  9 -> [ 36@0 37@0 38@0 39@0 ]  13 -> [ 49@0 51@0 ]  14 -> [ 41@0 43@0 ]  16 -> [ 52@0 53@0 54@0 55@0 ]  17 -> [ 49@0 51@0 ]  20 -> [ 49@0 51@0 ]  21 -> [ 49@0 51@0 ]  24 -> [ 49@0 51@0 ]  26 -> [ 56@0 58@0 59@0 ]  32 -> [ 8@0 10@0 11@0 ]  38 -> [ 8@0 10@0 11@0 ]  40 -> [ 0@0 1@0 2@0 3@0 ]  45 -> [ 13@0 14@0 15@0 ]  48 -> [ 16@0 17@0 18@0 19@0 ]  52 -> [ 24@0 26@0 27@0 ]  57 -> [ 24@0 26@0 27@0 ]  61 -> [ 8@0 10@0 11@0 ]  ], output requests = [ 0 -> [ 40@0 ]  1 -> [ 40@0 ]  2 -> [ 40@0 ]  3 -> [ 40@0 ]  8 -> [ 32@0 38@0 61@0 ]  10 -> [ 32@0 38@0 61@0 ]  11 -> [ 32@0 38@0 61@0 ]  13 -> [ 45@0 ]  14 -> [ 45@0 ]  15 -> [ 45@0 ]  16 -> [ 48@0 ]  17 -> [ 48@0 ]  18 -> [ 48@0 ]  19 -> [ 48@0 ]  24 -> [ 52@0 57@0 ]  26 -> [ 52@0 57@0 ]  27 -> [ 52@0 57@0 ]  36 -> [ 9@0 ]  37 -> [ 9@0 ]  38 -> [ 9@0 ]  39 -> [ 9@0 ]  41 -> [ 1@0 14@0 ]  43 -> [ 1@0 14@0 ]  49 -> [ 13@0 17@0 20@0 21@0 24@0 ]  51 -> [ 13@0 17@0 20@0 21@0 24@0 ]  52 -> [ 16@0 ]  53 -> [ 16@0 ]  54 -> [ 16@0 ]  55 -> [ 16@0 ]  56 -> [ 26@0 ]  58 -> [ 26@0 ]  59 -> [ 26@0 ]  ].
28 | network_0/router_level2_69/vc_allocator | Input grants = [ 1 -> 43  9 -> 36  14 -> 41  16 -> 52  17 -> 49  26 -> 56  40 -> 0  45 -> 13  48 -> 16  52 -> 24  61 -> 8  ], output grants = [ 0 -> 40  8 -> 61  13 -> 45  16 -> 48  24 -> 52  36 -> 9  41 -> 14  43 -> 1  49 -> 17  52 -> 16  56 -> 26  ].
28 | network_0/router_level2_69 | Assigning VC 0 at output 0 to VC 0 at input 10.
28 | network_0/router_level2_69 | Completed VC allocation for VC 0 at input 10 (front: 8).
28 | network_0/router_level2_69 |   Acquiring assigned VC 0 at output 0.
28 | network_0/router_level2_69/buf_10/vc_0 | Changing state from vc_alloc to active.
28 | network_0/router_level3_72 | Adding flit 9 to VC 1 at input 15 (state: idle, empty).
28 | network_0/router_level3_72 | Using precomputed lookahead routing information for VC 1 at input 15 (front: 9).
28 | network_0/router_level3_72/buf_15/vc_1 | Changing state from idle to vc_alloc.
28 | network_0/router_level3_72 | Beginning VC allocation for VC 1 at input 15 (front: 9).
28 | network_0/router_level3_72 |   VC 0 at output 0 is in use by VC 0 at input 15 (front flit: 3695).
28 | network_0/router_level3_72 |   Requesting VC 1 at output 0 (in_pri: 0, out_pri: 0).
28 | network_0/router_level3_72 |   Requesting VC 2 at output 0 (in_pri: 0, out_pri: 0).
28 | network_0/router_level3_72 |   Requesting VC 3 at output 0 (in_pri: 0, out_pri: 0).
28 | network_0/router_level3_72/vc_allocator | Input requests = [ 1 -> [ 33@0 35@0 ]  2 -> [ 63@0 ]  3 -> [ 33@0 35@0 ]  6 -> [ 46@0 ]  7 -> [ 46@0 ]  9 -> [ 38@0 ]  15 -> [ 48@0 50@0 51@0 ]  16 -> [ 46@0 ]  18 -> [ 46@0 ]  19 -> [ 63@0 ]  24 -> [ 38@0 ]  28 -> [ 33@0 35@0 ]  29 -> [ 48@0 50@0 51@0 ]  44 -> [ 20@0 21@0 22@0 23@0 ]  50 -> [ 12@0 13@0 14@0 15@0 ]  52 -> [ 24@0 25@0 26@0 27@0 ]  56 -> [ 9@0 10@0 11@0 ]  61 -> [ 1@0 2@0 3@0 ]  ], output requests = [ 1 -> [ 61@0 ]  2 -> [ 61@0 ]  3 -> [ 61@0 ]  9 -> [ 56@0 ]  10 -> [ 56@0 ]  11 -> [ 56@0 ]  12 -> [ 50@0 ]  13 -> [ 50@0 ]  14 -> [ 50@0 ]  15 -> [ 50@0 ]  20 -> [ 44@0 ]  21 -> [ 44@0 ]  22 -> [ 44@0 ]  23 -> [ 44@0 ]  24 -> [ 52@0 ]  25 -> [ 52@0 ]  26 -> [ 52@0 ]  27 -> [ 52@0 ]  33 -> [ 1@0 3@0 28@0 ]  35 -> [ 1@0 3@0 28@0 ]  38 -> [ 9@0 24@0 ]  46 -> [ 6@0 7@0 16@0 18@0 ]  48 -> [ 15@0 29@0 ]  50 -> [ 15@0 29@0 ]  51 -> [ 15@0 29@0 ]  63 -> [ 2@0 19@0 ]  ].
28 | network_0/router_level3_72/vc_allocator | Input grants = [ 6 -> 46  9 -> 38  15 -> 48  19 -> 63  28 -> 33  44 -> 20  50 -> 12  52 -> 24  56 -> 9  61 -> 1  ], output grants = [ 1 -> 61  9 -> 56  12 -> 50  20 -> 44  24 -> 52  33 -> 28  38 -> 9  46 -> 6  48 -> 15  63 -> 19  ].
28 | network_0/router_level3_72 | Assigning VC 1 at output 0 to VC 1 at input 15.
28 | network_0/router_level3_72 | Completed VC allocation for VC 1 at input 15 (front: 9).
28 | network_0/router_level3_72 |   Acquiring assigned VC 1 at output 0.
28 | network_0/router_level3_72/buf_15/vc_1 | Changing state from vc_alloc to active.
28 | network_0/router_level3_80 | Beginning crossbar traversal for flit 10 from input 11.0 to output 0.0.
28 | network_0/router_level3_80 | Completed crossbar traversal for flit 10 from input 11.0 to output 0.0.
28 | network_0/router_level3_80 | Buffering flit 10 at output 0.
28 | network_0/router_level3_80 | Sending flit 10 to channel at output 0.
29 | network_0/network_0_fchan_egress640 | Beginning channel traversal for flit 10 with delay 1.
29 | network_0/router_level2_69 | Beginning switch allocation for VC 0 at input 10 (front: 8).
29 | network_0/router_level2_69 |   Requesting output 0.0 (non-spec, pri: 0).
29 | network_0/router_level2_69/sw_allocator | Input requests = [ 0 -> [ 10@0 14@0 ]  1 -> [ 10@0 11@0 12@0 ]  2 -> [ 9@0 ]  3 -> [ 10@0 ]  4 -> [ 12@0 13@0 15@0 ]  6 -> [ 14@0 ]  10 -> [ 0@0 ]  11 -> [ 1@0 3@0 ]  12 -> [ 4@0 ]  13 -> [ 6@0 ]  15 -> [ 2@0 ]  ], output requests = [ 0 -> [ 10@0 ]  1 -> [ 11@0 ]  2 -> [ 15@0 ]  3 -> [ 11@0 ]  4 -> [ 12@0 ]  6 -> [ 13@0 ]  9 -> [ 2@0 ]  10 -> [ 0@0 1@0 3@0 ]  11 -> [ 1@0 ]  12 -> [ 1@0 4@0 ]  13 -> [ 4@0 ]  14 -> [ 0@0 6@0 ]  15 -> [ 4@0 ]  ].
29 | network_0/router_level2_69/sw_allocator | Input grants = [ 1 -> 10  2 -> 9  4 -> 15  6 -> 14  10 -> 0  11 -> 3  12 -> 4  13 -> 6  15 -> 2  ], output grants = [ 0 -> 10  2 -> 15  3 -> 11  4 -> 12  6 -> 13  9 -> 2  10 -> 1  14 -> 6  15 -> 4  ].
29 | network_0/router_level2_69 | Assigning output 0.0 to VC 0 at input 10.0.
29 | network_0/router_level2_69 | Completed switch allocation for VC 0 at input 10 (front: 8).
29 | network_0/router_level2_69 |   Scheduling switch connection from input 10.0 to output 0.0.
29 | network_0/router_level2_69 | Updating lookahead routing information for flit 8.
29 | network_0/router_level3_72 | Beginning switch allocation for VC 1 at input 15 (front: 9).
29 | network_0/router_level3_72 |   Requesting output 0.0 (non-spec, pri: 0).
29 | network_0/router_level3_72/sw_allocator | Input requests = [ 0 -> [ 10@0 ]  1 -> [ 11@0 14@0 ]  2 -> [ 8@0 9@0 12@0 ]  3 -> [ 12@0 15@0 ]  4 -> [ 15@0 ]  5 -> [ 9@0 11@0 ]  6 -> [ 8@0 11@0 ]  7 -> [ 8@0 ]  11 -> [ 5@0 ]  12 -> [ 3@0 ]  13 -> [ 6@0 ]  14 -> [ 2@0 ]  15 -> [ 0@0 ]  ], output requests = [ 0 -> [ 15@0 ]  2 -> [ 14@0 ]  3 -> [ 12@0 ]  5 -> [ 11@0 ]  6 -> [ 13@0 ]  8 -> [ 2@0 6@0 7@0 ]  9 -> [ 2@0 5@0 ]  10 -> [ 0@0 ]  11 -> [ 1@0 5@0 6@0 ]  12 -> [ 2@0 3@0 ]  14 -> [ 1@0 ]  15 -> [ 3@0 4@0 ]  ].
29 | network_0/router_level3_72/sw_allocator | Input grants = [ 0 -> 10  1 -> 14  3 -> 15  5 -> 11  7 -> 8  11 -> 5  12 -> 3  13 -> 6  14 -> 2  15 -> 0  ], output grants = [ 0 -> 15  2 -> 14  3 -> 12  5 -> 11  6 -> 13  8 -> 7  10 -> 0  11 -> 5  14 -> 1  15 -> 3  ].
29 | network_0/router_level3_72 | Assigning output 0.0 to VC 1 at input 15.0.
29 | network_0/router_level3_72 | Completed switch allocation for VC 1 at input 15 (front: 9).
29 | network_0/router_level3_72 |   Scheduling switch connection from input 15.0 to output 0.0.
29 | network_0/network_0_fchan_egress640 | Completed channel traversal for flit 10.
30 | node640 | Ejecting flit 10 (packet 10) from VC 0.
30 | node640 | Injecting credit for VC 0 into subnet 0.
30 | node640 | Retiring flit 10 (packet 10, src = 10, dest = 640, hops = 7, flat = 30).
30 | node640 | Retiring packet 10 (plat = 30, nlat = 30, frag = 0, src = 10, dest = 640).
30 | network_0/router_level2_69 | Beginning crossbar traversal for flit 8 from input 10.0 to output 0.0.
30 | network_0/router_level2_69 | Completed crossbar traversal for flit 8 from input 10.0 to output 0.0.
30 | network_0/router_level2_69 | Buffering flit 8 at output 0.
30 | network_0/router_level3_72 | Beginning crossbar traversal for flit 9 from input 15.0 to output 0.0.
30 | network_0/router_level3_72 | Completed crossbar traversal for flit 9 from input 15.0 to output 0.0.
30 | network_0/router_level3_72 | Buffering flit 9 at output 0.
30 | network_0/router_level2_69 | Sending flit 8 to channel at output 0.
30 | network_0/router_level3_72 | Sending flit 9 to channel at output 0.
31 | network_0/network_0_fchan_egress576 | Beginning channel traversal for flit 9 with delay 1.
31 | network_0/network_0_fchan_16936 | Beginning channel traversal for flit 8 with delay 1.
31 | network_0/network_0_fchan_egress576 | Completed channel traversal for flit 9.
31 | network_0/network_0_fchan_16936 | Completed channel traversal for flit 8.
32 | node576 | Ejecting flit 9 (packet 9) from VC 1.
32 | network_0/router_level3_64 | Received flit 8 from channel at input 13.
32 | node576 | Injecting credit for VC 1 into subnet 0.
32 | node576 | Retiring flit 9 (packet 9, src = 9, dest = 576, hops = 7, flat = 32).
32 | node576 | Retiring packet 9 (plat = 32, nlat = 32, frag = 0, src = 9, dest = 576).
32 | network_0/router_level3_64 | Adding flit 8 to VC 0 at input 13 (state: idle, empty).
32 | network_0/router_level3_64 | Using precomputed lookahead routing information for VC 0 at input 13 (front: 8).
32 | network_0/router_level3_64/buf_13/vc_0 | Changing state from idle to vc_alloc.
32 | network_0/router_level3_64 | Beginning VC allocation for VC 0 at input 13 (front: 8).
32 | network_0/router_level3_64 |   Requesting VC 0 at output 0 (in_pri: 0, out_pri: 0).
32 | network_0/router_level3_64 |   Requesting VC 1 at output 0 (in_pri: 0, out_pri: 0).
32 | network_0/router_level3_64 |   Requesting VC 2 at output 0 (in_pri: 0, out_pri: 0).
32 | network_0/router_level3_64 |   Requesting VC 3 at output 0 (in_pri: 0, out_pri: 0).
32 | network_0/router_level3_64/vc_allocator | Input requests = [ 3 -> [ 48@0 ]  6 -> [ 40@0 42@0 43@0 ]  7 -> [ 48@0 ]  8 -> [ 48@0 ]  9 -> [ 48@0 ]  13 -> [ 48@0 ]  14 -> [ 48@0 ]  16 -> [ 44@0 47@0 ]  19 -> [ 58@0 59@0 ]  21 -> [ 40@0 42@0 43@0 ]  24 -> [ 44@0 47@0 ]  26 -> [ 52@0 54@0 55@0 ]  28 -> [ 52@0 54@0 55@0 ]  30 -> [ 48@0 ]  44 -> [ 12@0 14@0 15@0 ]  46 -> [ 0@0 1@0 2@0 3@0 ]  52 -> [ 0@0 1@0 2@0 3@0 ]  ], output requests = [ 0 -> [ 46@0 52@0 ]  1 -> [ 46@0 52@0 ]  2 -> [ 46@0 52@0 ]  3 -> [ 46@0 52@0 ]  12 -> [ 44@0 ]  14 -> [ 44@0 ]  15 -> [ 44@0 ]  40 -> [ 6@0 21@0 ]  42 -> [ 6@0 21@0 ]  43 -> [ 6@0 21@0 ]  44 -> [ 16@0 24@0 ]  47 -> [ 16@0 24@0 ]  48 -> [ 3@0 7@0 8@0 9@0 13@0 14@0 30@0 ]  52 -> [ 26@0 28@0 ]  54 -> [ 26@0 28@0 ]  55 -> [ 26@0 28@0 ]  58 -> [ 19@0 ]  59 -> [ 19@0 ]  ].
32 | network_0/router_level3_64/vc_allocator | Input grants = [ 14 -> 48  16 -> 44  19 -> 58  21 -> 40  26 -> 52  44 -> 12  46 -> 0  ], output grants = [ 0 -> 46  12 -> 44  40 -> 21  44 -> 16  48 -> 14  52 -> 26  58 -> 19  ].
32 | network_0/router_level3_64 | VC allocation failed for VC 0 at input 13.
32 | network_0/router_level3_64 | Completed VC allocation for VC 0 at input 13 (front: 8).
32 | network_0/router_level3_64 |   No output VC allocated.
33 | network_0/router_level3_64 | Beginning VC allocation for VC 0 at input 13 (front: 8).
33 | network_0/router_level3_64 |   VC 0 at output 0 is in use by VC 2 at input 11 (front flit: 22170).
33 | network_0/router_level3_64 |   Requesting VC 1 at output 0 (in_pri: 0, out_pri: 0).
33 | network_0/router_level3_64 |   Requesting VC 2 at output 0 (in_pri: 0, out_pri: 0).
33 | network_0/router_level3_64 |   Requesting VC 3 at output 0 (in_pri: 0, out_pri: 0).
33 | network_0/router_level3_64/vc_allocator | Input requests = [ 0 -> [ 60@0 61@0 62@0 63@0 ]  3 -> [ 50@0 ]  4 -> [ 45@0 47@0 ]  6 -> [ 42@0 43@0 ]  7 -> [ 50@0 ]  8 -> [ 50@0 ]  9 -> [ 50@0 ]  12 -> [ 45@0 47@0 ]  13 -> [ 50@0 ]  17 -> [ 32@0 33@0 ]  23 -> [ 32@0 33@0 ]  24 -> [ 45@0 47@0 ]  28 -> [ 54@0 55@0 ]  29 -> [ 32@0 33@0 ]  30 -> [ 50@0 ]  32 -> [ 4@0 5@0 6@0 7@0 ]  47 -> [ 28@0 29@0 30@0 31@0 ]  48 -> [ 28@0 29@0 30@0 31@0 ]  52 -> [ 1@0 2@0 3@0 ]  ], output requests = [ 1 -> [ 52@0 ]  2 -> [ 52@0 ]  3 -> [ 52@0 ]  4 -> [ 32@0 ]  5 -> [ 32@0 ]  6 -> [ 32@0 ]  7 -> [ 32@0 ]  28 -> [ 47@0 48@0 ]  29 -> [ 47@0 48@0 ]  30 -> [ 47@0 48@0 ]  31 -> [ 47@0 48@0 ]  32 -> [ 17@0 23@0 29@0 ]  33 -> [ 17@0 23@0 29@0 ]  42 -> [ 6@0 ]  43 -> [ 6@0 ]  45 -> [ 4@0 12@0 24@0 ]  47 -> [ 4@0 12@0 24@0 ]  50 -> [ 3@0 7@0 8@0 9@0 13@0 30@0 ]  54 -> [ 28@0 ]  55 -> [ 28@0 ]  60 -> [ 0@0 ]  61 -> [ 0@0 ]  62 -> [ 0@0 ]  63 -> [ 0@0 ]  ].
33 | network_0/router_level3_64/vc_allocator | Input grants = [ 0 -> 60  4 -> 45  6 -> 42  23 -> 32  28 -> 54  30 -> 50  32 -> 4  47 -> 28  52 -> 1  ], output grants = [ 1 -> 52  4 -> 32  28 -> 47  32 -> 23  42 -> 6  45 -> 4  50 -> 30  54 -> 28  60 -> 0  ].
33 | network_0/router_level3_64 | Assigning VC 1 at output 0 to VC 0 at input 13.
33 | network_0/router_level3_64 | Completed VC allocation for VC 0 at input 13 (front: 8).
33 | network_0/router_level3_64 |   Acquiring assigned VC 1 at output 0.
33 | network_0/router_level3_64/buf_13/vc_0 | Changing state from vc_alloc to active.
34 | network_0/router_level3_64 | Beginning switch allocation for VC 0 at input 13 (front: 8).
34 | network_0/router_level3_64 |   Requesting output 0.0 (non-spec, pri: 0).
34 | network_0/router_level3_64/sw_allocator | Input requests = [ 0 -> [ 8@0 15@0 ]  1 -> [ 10@0 11@0 14@0 ]  3 -> [ 12@0 ]  4 -> [ 11@0 ]  5 -> [ 8@0 11@0 12@0 ]  6 -> [ 9@0 13@0 ]  7 -> [ 10@0 12@0 13@0 ]  8 -> [ 1@0 ]  11 -> [ 0@0 7@0 ]  13 -> [ 0@0 ]  ], output requests = [ 0 -> [ 11@0 13@0 ]  1 -> [ 8@0 ]  7 -> [ 11@0 ]  8 -> [ 0@0 5@0 ]  9 -> [ 6@0 ]  10 -> [ 1@0 7@0 ]  11 -> [ 1@0 4@0 5@0 ]  12 -> [ 3@0 5@0 7@0 ]  13 -> [ 6@0 7@0 ]  14 -> [ 1@0 ]  15 -> [ 0@0 ]  ].
34 | network_0/router_level3_64/sw_allocator | Input grants = [ 0 -> 15  3 -> 12  4 -> 11  6 -> 13  7 -> 10  8 -> 1  11 -> 7  13 -> 0  ], output grants = [ 0 -> 13  1 -> 8  7 -> 11  10 -> 7  11 -> 4  12 -> 3  13 -> 6  15 -> 0  ].
34 | network_0/router_level3_64 | Assigning output 0.0 to VC 0 at input 13.0.
34 | network_0/router_level3_64 | Completed switch allocation for VC 0 at input 13 (front: 8).
34 | network_0/router_level3_64 |   Scheduling switch connection from input 13.0 to output 0.0.
35 | network_0/router_level3_64 | Beginning crossbar traversal for flit 8 from input 13.0 to output 0.0.
35 | network_0/router_level3_64 | Completed crossbar traversal for flit 8 from input 13.0 to output 0.0.
35 | network_0/router_level3_64 | Buffering flit 8 at output 0.
35 | network_0/router_level3_64 | Sending flit 8 to channel at output 0.
36 | network_0/network_0_fchan_egress512 | Beginning channel traversal for flit 8 with delay 1.
36 | network_0/network_0_fchan_egress512 | Completed channel traversal for flit 8.
37 | node512 | Ejecting flit 8 (packet 8) from VC 1.
37 | node512 | Injecting credit for VC 1 into subnet 0.
37 | node512 | Retiring flit 8 (packet 8, src = 8, dest = 512, hops = 7, flat = 37).
37 | node512 | Retiring packet 8 (plat = 37, nlat = 37, frag = 0, src = 8, dest = 512).
Class 0:
Packet latency average = 189.105
	minimum = 6
	maximum = 531
Network latency average = 155.312
	minimum = 6
	maximum = 464
Slowest packet = 1051296
Flit latency average = 155.312
	minimum = 6
	maximum = 464
Slowest flit = 1727921
Fragmentation average = 0
	minimum = 0
	maximum = 0
Injected packet rate average = 0.747966
	minimum = 0.682 (at node 2980)
	maximum = 0.918 (at node 1300)
Accepted packet rate average = 0.605438
	minimum = 0.541 (at node 2350)
	maximum = 0.913 (at node 1300)
Injected flit rate average = 0.747966
	minimum = 0.682 (at node 2980)
	maximum = 0.918 (at node 1300)
Accepted flit rate average= 0.605438
	minimum = 0.541 (at node 2350)
	maximum = 0.913 (at node 1300)
Injected packet length average = 1
Accepted packet length average = 1
Total in-flight flits = 585059 (0 measured)
latency change    = 1
throughput change = 1
Class 0:
Packet latency average = 329.504
	minimum = 6
	maximum = 849
Network latency average = 192.538
	minimum = 6
	maximum = 546
Slowest packet = 1051296
Flit latency average = 192.538
	minimum = 6
	maximum = 546
Slowest flit = 3885688
Fragmentation average = 0
	minimum = 0
	maximum = 0
Injected packet rate average = 0.714543
	minimum = 0.663 (at node 1371)
	maximum = 0.914 (at node 1950)
Accepted packet rate average = 0.632249
	minimum = 0.577 (at node 341)
	maximum = 0.911 (at node 1950)
Injected flit rate average = 0.714543
	minimum = 0.663 (at node 1371)
	maximum = 0.914 (at node 1950)
Accepted flit rate average= 0.632249
	minimum = 0.577 (at node 341)
	maximum = 0.911 (at node 1950)
Injected packet length average = 1
Accepted packet length average = 1
Total in-flight flits = 675508 (0 measured)
latency change    = 0.426092
throughput change = 0.042406
Class 0:
Packet latency average = 719.367
	minimum = 6
	maximum = 1129
Network latency average = 251.723
	minimum = 6
	maximum = 603
Slowest packet = 5328906
Flit latency average = 251.723
	minimum = 6
	maximum = 603
Slowest flit = 5561689
Fragmentation average = 0
	minimum = 0
	maximum = 0
Injected packet rate average = 0.678669
	minimum = 0.584 (at node 2463)
	maximum = 0.918 (at node 1170)
Accepted packet rate average = 0.666427
	minimum = 0.577 (at node 2878)
	maximum = 0.919 (at node 1170)
Injected flit rate average = 0.678669
	minimum = 0.584 (at node 2463)
	maximum = 0.918 (at node 1170)
Accepted flit rate average= 0.666427
	minimum = 0.577 (at node 2878)
	maximum = 0.919 (at node 1170)
Injected packet length average = 1
Accepted packet length average = 1
Total in-flight flits = 725596 (0 measured)
latency change    = 0.541953
throughput change = 0.0512856
Average latency for class 0 exceeded 500 cycles. Aborting simulation.
Too many sample periods needed to converge
Simulation unstable, ending ...
Total run time 836.238
