BEGIN Configuration File: examples/fattree_config_0.60_2_transpose
// $Id: dragonflyconfig 3555 2011-05-16 23:37:55Z dub $

// Copyright (c) 2007-2015, Trustees of The Leland Stanford Junior University
// All rights reserved.
//
// Redistribution and use in source and binary forms, with or without
// modification, are permitted provided that the following conditions are met:
//
// Redistributions of source code must retain the above copyright notice, this
// list of conditions and the following disclaimer.
// Redistributions in binary form must reproduce the above copyright notice,
// this list of conditions and the following disclaimer in the documentation
// and/or other materials provided with the distribution.
//
// THIS SOFTWARE IS PROVIDED BY THE COPYRIGHT HOLDERS AND CONTRIBUTORS "AS IS"
// AND ANY EXPRESS OR IMPLIED WARRANTIES, INCLUDING, BUT NOT LIMITED TO, THE
// IMPLIED WARRANTIES OF MERCHANTABILITY AND FITNESS FOR A PARTICULAR PURPOSE
// ARE DISCLAIMED. IN NO EVENT SHALL THE COPYRIGHT OWNER OR CONTRIBUTORS BE
// LIABLE FOR ANY DIRECT, INDIRECT, INCIDENTAL, SPECIAL, EXEMPLARY, OR
// CONSEQUENTIAL DAMAGES (INCLUDING, BUT NOT LIMITED TO, PROCUREMENT OF
// SUBSTITUTE GOODS OR SERVICES; LOSS OF USE, DATA, OR PROFITS; OR BUSINESS
// INTERRUPTION) HOWEVER CAUSED AND ON ANY THEORY OF LIABILITY, WHETHER IN
// CONTRACT, STRICT LIABILITY, OR TORT (INCLUDING NEGLIGENCE OR OTHERWISE)
// ARISING IN ANY WAY OUT OF THE USE OF THIS SOFTWARE, EVEN IF ADVISED OF THE
// POSSIBILITY OF SUCH DAMAGE.


hold_switch_for_packet=1;

vc_buf_size = 16;


wait_for_tail_credit = 0;

//
// Router architecture
//
vc_allocator = separable_input_first; 
sw_allocator = separable_input_first;
alloc_iters  = 1;

credit_delay   = 2;
routing_delay  = 0;
vc_alloc_delay = 1;
sw_alloc_delay = 1;
st_final_delay = 1;

input_speedup     = 1;
output_speedup    = 1;
internal_speedup  = 1.0;


warmup_periods = 3;
sim_count          = 1;

sample_period  = 1000;  

routing_function = nca;
num_vcs     = 4;

priority = none;
traffic = transpose;


injection_rate = 0.60;
packet_size = 1;
injection_rate_uses_flits=1;

topology = fattree;

k  = 8;
n  = 4;
t = 2;

watch_file = watchfile.txt;
watch_out=-;
stats_out = examples/fattree_config_0.60_2_transpose.m;

END Configuration File: examples/fattree_config_0.60_2_transpose
Fat Tree
 k = 8 levels = 4
 each switch - total radix =  16
 # of switches = 2048
 # of channels = 24576
 # of nodes ( size of network ) = 4096
 tapering factor = 2
0 | node4 | Enqueuing flit 1 (packet 1) at time 0.
0 | node5 | Enqueuing flit 2 (packet 2) at time 0.
0 | node8 | Enqueuing flit 3 (packet 3) at time 0.
0 | node9 | Enqueuing flit 4 (packet 4) at time 0.
0 | node11 | Enqueuing flit 5 (packet 5) at time 0.
0 | node12 | Enqueuing flit 6 (packet 6) at time 0.
0 | node13 | Enqueuing flit 7 (packet 7) at time 0.
0 | node14 | Enqueuing flit 8 (packet 8) at time 0.
0 | node15 | Enqueuing flit 9 (packet 9) at time 0.
0 | node17 | Enqueuing flit 10 (packet 10) at time 0.
0 | traffic_manager | Finding output VC for flit 1:
0 | traffic_manager |   Selected output VC 0.
0 | node4 | Generating lookahead routing info for flit 1.
0 | node4 | Injecting flit 1 into subnet 0 at time 0 with priority 0.
0 | traffic_manager | Finding output VC for flit 2:
0 | traffic_manager |   Selected output VC 0.
0 | node5 | Generating lookahead routing info for flit 2.
0 | node5 | Injecting flit 2 into subnet 0 at time 0 with priority 0.
0 | traffic_manager | Finding output VC for flit 3:
0 | traffic_manager |   Selected output VC 0.
0 | node8 | Generating lookahead routing info for flit 3.
0 | node8 | Injecting flit 3 into subnet 0 at time 0 with priority 0.
0 | traffic_manager | Finding output VC for flit 4:
0 | traffic_manager |   Selected output VC 0.
0 | node9 | Generating lookahead routing info for flit 4.
0 | node9 | Injecting flit 4 into subnet 0 at time 0 with priority 0.
0 | traffic_manager | Finding output VC for flit 5:
0 | traffic_manager |   Selected output VC 0.
0 | node11 | Generating lookahead routing info for flit 5.
0 | node11 | Injecting flit 5 into subnet 0 at time 0 with priority 0.
0 | traffic_manager | Finding output VC for flit 6:
0 | traffic_manager |   Selected output VC 0.
0 | node12 | Generating lookahead routing info for flit 6.
0 | node12 | Injecting flit 6 into subnet 0 at time 0 with priority 0.
0 | traffic_manager | Finding output VC for flit 7:
0 | traffic_manager |   Selected output VC 0.
0 | node13 | Generating lookahead routing info for flit 7.
0 | node13 | Injecting flit 7 into subnet 0 at time 0 with priority 0.
0 | traffic_manager | Finding output VC for flit 8:
0 | traffic_manager |   Selected output VC 0.
0 | node14 | Generating lookahead routing info for flit 8.
0 | node14 | Injecting flit 8 into subnet 0 at time 0 with priority 0.
0 | traffic_manager | Finding output VC for flit 9:
0 | traffic_manager |   Selected output VC 0.
0 | node15 | Generating lookahead routing info for flit 9.
0 | node15 | Injecting flit 9 into subnet 0 at time 0 with priority 0.
0 | traffic_manager | Finding output VC for flit 10:
0 | traffic_manager |   Selected output VC 0.
0 | node17 | Generating lookahead routing info for flit 10.
0 | node17 | Injecting flit 10 into subnet 0 at time 0 with priority 0.
1 | network_0/network_0_fchan_ingress4 | Beginning channel traversal for flit 1 with delay 1.
1 | network_0/network_0_fchan_ingress5 | Beginning channel traversal for flit 2 with delay 1.
1 | network_0/network_0_fchan_ingress8 | Beginning channel traversal for flit 3 with delay 1.
1 | network_0/network_0_fchan_ingress9 | Beginning channel traversal for flit 4 with delay 1.
1 | network_0/network_0_fchan_ingress11 | Beginning channel traversal for flit 5 with delay 1.
1 | network_0/network_0_fchan_ingress12 | Beginning channel traversal for flit 6 with delay 1.
1 | network_0/network_0_fchan_ingress13 | Beginning channel traversal for flit 7 with delay 1.
1 | network_0/network_0_fchan_ingress14 | Beginning channel traversal for flit 8 with delay 1.
1 | network_0/network_0_fchan_ingress15 | Beginning channel traversal for flit 9 with delay 1.
1 | network_0/network_0_fchan_ingress17 | Beginning channel traversal for flit 10 with delay 1.
1 | network_0/network_0_fchan_ingress4 | Completed channel traversal for flit 1.
1 | network_0/network_0_fchan_ingress5 | Completed channel traversal for flit 2.
1 | network_0/network_0_fchan_ingress8 | Completed channel traversal for flit 3.
1 | network_0/network_0_fchan_ingress9 | Completed channel traversal for flit 4.
1 | network_0/network_0_fchan_ingress11 | Completed channel traversal for flit 5.
1 | network_0/network_0_fchan_ingress12 | Completed channel traversal for flit 6.
1 | network_0/network_0_fchan_ingress13 | Completed channel traversal for flit 7.
1 | network_0/network_0_fchan_ingress14 | Completed channel traversal for flit 8.
1 | network_0/network_0_fchan_ingress15 | Completed channel traversal for flit 9.
1 | network_0/network_0_fchan_ingress17 | Completed channel traversal for flit 10.
2 | network_0/router_level3_0 | Received flit 1 from channel at input 4.
2 | network_0/router_level3_0 | Received flit 2 from channel at input 5.
2 | network_0/router_level3_1 | Received flit 3 from channel at input 0.
2 | network_0/router_level3_1 | Received flit 4 from channel at input 1.
2 | network_0/router_level3_1 | Received flit 5 from channel at input 3.
2 | network_0/router_level3_1 | Received flit 6 from channel at input 4.
2 | network_0/router_level3_1 | Received flit 7 from channel at input 5.
2 | network_0/router_level3_1 | Received flit 8 from channel at input 6.
2 | network_0/router_level3_1 | Received flit 9 from channel at input 7.
2 | network_0/router_level3_2 | Received flit 10 from channel at input 1.
2 | network_0/router_level3_0 | Adding flit 1 to VC 0 at input 4 (state: idle, empty).
2 | network_0/router_level3_0 | Using precomputed lookahead routing information for VC 0 at input 4 (front: 1).
2 | network_0/router_level3_0/buf_4/vc_0 | Changing state from idle to vc_alloc.
2 | network_0/router_level3_0 | Adding flit 2 to VC 0 at input 5 (state: idle, empty).
2 | network_0/router_level3_0 | Using precomputed lookahead routing information for VC 0 at input 5 (front: 2).
2 | network_0/router_level3_0/buf_5/vc_0 | Changing state from idle to vc_alloc.
2 | network_0/router_level3_0 | Beginning VC allocation for VC 0 at input 4 (front: 1).
2 | network_0/router_level3_0 |   Requesting VC 0 at output 13 (in_pri: 0, out_pri: 0).
2 | network_0/router_level3_0 |   Requesting VC 1 at output 13 (in_pri: 0, out_pri: 0).
2 | network_0/router_level3_0 |   Requesting VC 2 at output 13 (in_pri: 0, out_pri: 0).
2 | network_0/router_level3_0 |   Requesting VC 3 at output 13 (in_pri: 0, out_pri: 0).
2 | network_0/router_level3_0 | Beginning VC allocation for VC 0 at input 5 (front: 2).
2 | network_0/router_level3_0 |   Requesting VC 0 at output 14 (in_pri: 0, out_pri: 0).
2 | network_0/router_level3_0 |   Requesting VC 1 at output 14 (in_pri: 0, out_pri: 0).
2 | network_0/router_level3_0 |   Requesting VC 2 at output 14 (in_pri: 0, out_pri: 0).
2 | network_0/router_level3_0 |   Requesting VC 3 at output 14 (in_pri: 0, out_pri: 0).
2 | network_0/router_level3_0/vc_allocator | Input requests = [ 4 -> [ 48@0 49@0 50@0 51@0 ]  16 -> [ 52@0 53@0 54@0 55@0 ]  20 -> [ 56@0 57@0 58@0 59@0 ]  ], output requests = [ 48 -> [ 4@0 ]  49 -> [ 4@0 ]  50 -> [ 4@0 ]  51 -> [ 4@0 ]  52 -> [ 16@0 ]  53 -> [ 16@0 ]  54 -> [ 16@0 ]  55 -> [ 16@0 ]  56 -> [ 20@0 ]  57 -> [ 20@0 ]  58 -> [ 20@0 ]  59 -> [ 20@0 ]  ].
2 | network_0/router_level3_0/vc_allocator | Input grants = [ 4 -> 48  16 -> 52  20 -> 56  ], output grants = [ 48 -> 4  52 -> 16  56 -> 20  ].
2 | network_0/router_level3_0 | Assigning VC 0 at output 13 to VC 0 at input 4.
2 | network_0/router_level3_0 | Assigning VC 0 at output 14 to VC 0 at input 5.
2 | network_0/router_level3_0 | Completed VC allocation for VC 0 at input 4 (front: 1).
2 | network_0/router_level3_0 |   Acquiring assigned VC 0 at output 13.
2 | network_0/router_level3_0/buf_4/vc_0 | Changing state from vc_alloc to active.
2 | network_0/router_level3_0 | Completed VC allocation for VC 0 at input 5 (front: 2).
2 | network_0/router_level3_0 |   Acquiring assigned VC 0 at output 14.
2 | network_0/router_level3_0/buf_5/vc_0 | Changing state from vc_alloc to active.
2 | network_0/router_level3_1 | Adding flit 3 to VC 0 at input 0 (state: idle, empty).
2 | network_0/router_level3_1 | Using precomputed lookahead routing information for VC 0 at input 0 (front: 3).
2 | network_0/router_level3_1/buf_0/vc_0 | Changing state from idle to vc_alloc.
2 | network_0/router_level3_1 | Adding flit 4 to VC 0 at input 1 (state: idle, empty).
2 | network_0/router_level3_1 | Using precomputed lookahead routing information for VC 0 at input 1 (front: 4).
2 | network_0/router_level3_1/buf_1/vc_0 | Changing state from idle to vc_alloc.
2 | network_0/router_level3_1 | Adding flit 5 to VC 0 at input 3 (state: idle, empty).
2 | network_0/router_level3_1 | Using precomputed lookahead routing information for VC 0 at input 3 (front: 5).
2 | network_0/router_level3_1/buf_3/vc_0 | Changing state from idle to vc_alloc.
2 | network_0/router_level3_1 | Adding flit 6 to VC 0 at input 4 (state: idle, empty).
2 | network_0/router_level3_1 | Using precomputed lookahead routing information for VC 0 at input 4 (front: 6).
2 | network_0/router_level3_1/buf_4/vc_0 | Changing state from idle to vc_alloc.
2 | network_0/router_level3_1 | Adding flit 7 to VC 0 at input 5 (state: idle, empty).
2 | network_0/router_level3_1 | Using precomputed lookahead routing information for VC 0 at input 5 (front: 7).
2 | network_0/router_level3_1/buf_5/vc_0 | Changing state from idle to vc_alloc.
2 | network_0/router_level3_1 | Adding flit 8 to VC 0 at input 6 (state: idle, empty).
2 | network_0/router_level3_1 | Using precomputed lookahead routing information for VC 0 at input 6 (front: 8).
2 | network_0/router_level3_1/buf_6/vc_0 | Changing state from idle to vc_alloc.
2 | network_0/router_level3_1 | Adding flit 9 to VC 0 at input 7 (state: idle, empty).
2 | network_0/router_level3_1 | Using precomputed lookahead routing information for VC 0 at input 7 (front: 9).
2 | network_0/router_level3_1/buf_7/vc_0 | Changing state from idle to vc_alloc.
2 | network_0/router_level3_1 | Beginning VC allocation for VC 0 at input 0 (front: 3).
2 | network_0/router_level3_1 |   Requesting VC 0 at output 14 (in_pri: 0, out_pri: 0).
2 | network_0/router_level3_1 |   Requesting VC 1 at output 14 (in_pri: 0, out_pri: 0).
2 | network_0/router_level3_1 |   Requesting VC 2 at output 14 (in_pri: 0, out_pri: 0).
2 | network_0/router_level3_1 |   Requesting VC 3 at output 14 (in_pri: 0, out_pri: 0).
2 | network_0/router_level3_1 | Beginning VC allocation for VC 0 at input 1 (front: 4).
2 | network_0/router_level3_1 |   Requesting VC 0 at output 11 (in_pri: 0, out_pri: 0).
2 | network_0/router_level3_1 |   Requesting VC 1 at output 11 (in_pri: 0, out_pri: 0).
2 | network_0/router_level3_1 |   Requesting VC 2 at output 11 (in_pri: 0, out_pri: 0).
2 | network_0/router_level3_1 |   Requesting VC 3 at output 11 (in_pri: 0, out_pri: 0).
2 | network_0/router_level3_1 | Beginning VC allocation for VC 0 at input 3 (front: 5).
2 | network_0/router_level3_1 |   Requesting VC 0 at output 12 (in_pri: 0, out_pri: 0).
2 | network_0/router_level3_1 |   Requesting VC 1 at output 12 (in_pri: 0, out_pri: 0).
2 | network_0/router_level3_1 |   Requesting VC 2 at output 12 (in_pri: 0, out_pri: 0).
2 | network_0/router_level3_1 |   Requesting VC 3 at output 12 (in_pri: 0, out_pri: 0).
2 | network_0/router_level3_1 | Beginning VC allocation for VC 0 at input 4 (front: 6).
2 | network_0/router_level3_1 |   Requesting VC 0 at output 13 (in_pri: 0, out_pri: 0).
2 | network_0/router_level3_1 |   Requesting VC 1 at output 13 (in_pri: 0, out_pri: 0).
2 | network_0/router_level3_1 |   Requesting VC 2 at output 13 (in_pri: 0, out_pri: 0).
2 | network_0/router_level3_1 |   Requesting VC 3 at output 13 (in_pri: 0, out_pri: 0).
2 | network_0/router_level3_1 | Beginning VC allocation for VC 0 at input 5 (front: 7).
2 | network_0/router_level3_1 |   Requesting VC 0 at output 11 (in_pri: 0, out_pri: 0).
2 | network_0/router_level3_1 |   Requesting VC 1 at output 11 (in_pri: 0, out_pri: 0).
2 | network_0/router_level3_1 |   Requesting VC 2 at output 11 (in_pri: 0, out_pri: 0).
2 | network_0/router_level3_1 |   Requesting VC 3 at output 11 (in_pri: 0, out_pri: 0).
2 | network_0/router_level3_1 | Beginning VC allocation for VC 0 at input 6 (front: 8).
2 | network_0/router_level3_1 |   Requesting VC 0 at output 8 (in_pri: 0, out_pri: 0).
2 | network_0/router_level3_1 |   Requesting VC 1 at output 8 (in_pri: 0, out_pri: 0).
2 | network_0/router_level3_1 |   Requesting VC 2 at output 8 (in_pri: 0, out_pri: 0).
2 | network_0/router_level3_1 |   Requesting VC 3 at output 8 (in_pri: 0, out_pri: 0).
2 | network_0/router_level3_1 | Beginning VC allocation for VC 0 at input 7 (front: 9).
2 | network_0/router_level3_1 |   Requesting VC 0 at output 10 (in_pri: 0, out_pri: 0).
2 | network_0/router_level3_1 |   Requesting VC 1 at output 10 (in_pri: 0, out_pri: 0).
2 | network_0/router_level3_1 |   Requesting VC 2 at output 10 (in_pri: 0, out_pri: 0).
2 | network_0/router_level3_1 |   Requesting VC 3 at output 10 (in_pri: 0, out_pri: 0).
2 | network_0/router_level3_1/vc_allocator | Input requests = [ 0 -> [ 56@0 57@0 58@0 59@0 ]  4 -> [ 44@0 45@0 46@0 47@0 ]  12 -> [ 48@0 49@0 50@0 51@0 ]  16 -> [ 52@0 53@0 54@0 55@0 ]  20 -> [ 44@0 45@0 46@0 47@0 ]  24 -> [ 32@0 33@0 34@0 35@0 ]  28 -> [ 40@0 41@0 42@0 43@0 ]  ], output requests = [ 32 -> [ 24@0 ]  33 -> [ 24@0 ]  34 -> [ 24@0 ]  35 -> [ 24@0 ]  40 -> [ 28@0 ]  41 -> [ 28@0 ]  42 -> [ 28@0 ]  43 -> [ 28@0 ]  44 -> [ 4@0 20@0 ]  45 -> [ 4@0 20@0 ]  46 -> [ 4@0 20@0 ]  47 -> [ 4@0 20@0 ]  48 -> [ 12@0 ]  49 -> [ 12@0 ]  50 -> [ 12@0 ]  51 -> [ 12@0 ]  52 -> [ 16@0 ]  53 -> [ 16@0 ]  54 -> [ 16@0 ]  55 -> [ 16@0 ]  56 -> [ 0@0 ]  57 -> [ 0@0 ]  58 -> [ 0@0 ]  59 -> [ 0@0 ]  ].
2 | network_0/router_level3_1/vc_allocator | Input grants = [ 0 -> 56  4 -> 44  12 -> 48  16 -> 52  24 -> 32  28 -> 40  ], output grants = [ 32 -> 24  40 -> 28  44 -> 4  48 -> 12  52 -> 16  56 -> 0  ].
2 | network_0/router_level3_1 | Assigning VC 0 at output 14 to VC 0 at input 0.
2 | network_0/router_level3_1 | Assigning VC 0 at output 11 to VC 0 at input 1.
2 | network_0/router_level3_1 | Assigning VC 0 at output 12 to VC 0 at input 3.
2 | network_0/router_level3_1 | Assigning VC 0 at output 13 to VC 0 at input 4.
2 | network_0/router_level3_1 | VC allocation failed for VC 0 at input 5.
2 | network_0/router_level3_1 | Assigning VC 0 at output 8 to VC 0 at input 6.
2 | network_0/router_level3_1 | Assigning VC 0 at output 10 to VC 0 at input 7.
2 | network_0/router_level3_1 | Completed VC allocation for VC 0 at input 0 (front: 3).
2 | network_0/router_level3_1 |   Acquiring assigned VC 0 at output 14.
2 | network_0/router_level3_1/buf_0/vc_0 | Changing state from vc_alloc to active.
2 | network_0/router_level3_1 | Completed VC allocation for VC 0 at input 1 (front: 4).
2 | network_0/router_level3_1 |   Acquiring assigned VC 0 at output 11.
2 | network_0/router_level3_1/buf_1/vc_0 | Changing state from vc_alloc to active.
2 | network_0/router_level3_1 | Completed VC allocation for VC 0 at input 3 (front: 5).
2 | network_0/router_level3_1 |   Acquiring assigned VC 0 at output 12.
2 | network_0/router_level3_1/buf_3/vc_0 | Changing state from vc_alloc to active.
2 | network_0/router_level3_1 | Completed VC allocation for VC 0 at input 4 (front: 6).
2 | network_0/router_level3_1 |   Acquiring assigned VC 0 at output 13.
2 | network_0/router_level3_1/buf_4/vc_0 | Changing state from vc_alloc to active.
2 | network_0/router_level3_1 | Completed VC allocation for VC 0 at input 5 (front: 7).
2 | network_0/router_level3_1 |   No output VC allocated.
2 | network_0/router_level3_1 | Completed VC allocation for VC 0 at input 6 (front: 8).
2 | network_0/router_level3_1 |   Acquiring assigned VC 0 at output 8.
2 | network_0/router_level3_1/buf_6/vc_0 | Changing state from vc_alloc to active.
2 | network_0/router_level3_1 | Completed VC allocation for VC 0 at input 7 (front: 9).
2 | network_0/router_level3_1 |   Acquiring assigned VC 0 at output 10.
2 | network_0/router_level3_1/buf_7/vc_0 | Changing state from vc_alloc to active.
2 | network_0/router_level3_2 | Adding flit 10 to VC 0 at input 1 (state: idle, empty).
2 | network_0/router_level3_2 | Using precomputed lookahead routing information for VC 0 at input 1 (front: 10).
2 | network_0/router_level3_2/buf_1/vc_0 | Changing state from idle to vc_alloc.
2 | network_0/router_level3_2 | Beginning VC allocation for VC 0 at input 1 (front: 10).
2 | network_0/router_level3_2 |   Requesting VC 0 at output 13 (in_pri: 0, out_pri: 0).
2 | network_0/router_level3_2 |   Requesting VC 1 at output 13 (in_pri: 0, out_pri: 0).
2 | network_0/router_level3_2 |   Requesting VC 2 at output 13 (in_pri: 0, out_pri: 0).
2 | network_0/router_level3_2 |   Requesting VC 3 at output 13 (in_pri: 0, out_pri: 0).
2 | network_0/router_level3_2/vc_allocator | Input requests = [ 4 -> [ 52@0 53@0 54@0 55@0 ]  8 -> [ 56@0 57@0 58@0 59@0 ]  12 -> [ 60@0 61@0 62@0 63@0 ]  16 -> [ 60@0 61@0 62@0 63@0 ]  20 -> [ 32@0 33@0 34@0 35@0 ]  24 -> [ 60@0 61@0 62@0 63@0 ]  28 -> [ 44@0 45@0 46@0 47@0 ]  ], output requests = [ 32 -> [ 20@0 ]  33 -> [ 20@0 ]  34 -> [ 20@0 ]  35 -> [ 20@0 ]  44 -> [ 28@0 ]  45 -> [ 28@0 ]  46 -> [ 28@0 ]  47 -> [ 28@0 ]  52 -> [ 4@0 ]  53 -> [ 4@0 ]  54 -> [ 4@0 ]  55 -> [ 4@0 ]  56 -> [ 8@0 ]  57 -> [ 8@0 ]  58 -> [ 8@0 ]  59 -> [ 8@0 ]  60 -> [ 12@0 16@0 24@0 ]  61 -> [ 12@0 16@0 24@0 ]  62 -> [ 12@0 16@0 24@0 ]  63 -> [ 12@0 16@0 24@0 ]  ].
2 | network_0/router_level3_2/vc_allocator | Input grants = [ 4 -> 52  8 -> 56  12 -> 60  20 -> 32  28 -> 44  ], output grants = [ 32 -> 20  44 -> 28  52 -> 4  56 -> 8  60 -> 12  ].
2 | network_0/router_level3_2 | Assigning VC 0 at output 13 to VC 0 at input 1.
2 | network_0/router_level3_2 | Completed VC allocation for VC 0 at input 1 (front: 10).
2 | network_0/router_level3_2 |   Acquiring assigned VC 0 at output 13.
2 | network_0/router_level3_2/buf_1/vc_0 | Changing state from vc_alloc to active.
3 | network_0/router_level3_0 | Beginning switch allocation for VC 0 at input 4 (front: 1).
3 | network_0/router_level3_0 |   Requesting output 13.0 (non-spec, pri: 0).
3 | network_0/router_level3_0 | Beginning switch allocation for VC 0 at input 5 (front: 2).
3 | network_0/router_level3_0 |   Requesting output 14.0 (non-spec, pri: 0).
3 | network_0/router_level3_0/sw_allocator | Input requests = [ 1 -> [ 12@0 ]  4 -> [ 13@0 ]  5 -> [ 14@0 ]  ], output requests = [ 12 -> [ 1@0 ]  13 -> [ 4@0 ]  14 -> [ 5@0 ]  ].
3 | network_0/router_level3_0/sw_allocator | Input grants = [ 1 -> 12  4 -> 13  5 -> 14  ], output grants = [ 12 -> 1  13 -> 4  14 -> 5  ].
3 | network_0/router_level3_0 | Assigning output 13.0 to VC 0 at input 4.0.
3 | network_0/router_level3_0 | Assigning output 14.0 to VC 0 at input 5.0.
3 | network_0/router_level3_0 | Completed switch allocation for VC 0 at input 4 (front: 1).
3 | network_0/router_level3_0 |   Scheduling switch connection from input 4.0 to output 13.0.
3 | network_0/router_level3_0 | Updating lookahead routing information for flit 1.
3 | network_0/router_level3_0 | Completed switch allocation for VC 0 at input 5 (front: 2).
3 | network_0/router_level3_0 |   Scheduling switch connection from input 5.0 to output 14.0.
3 | network_0/router_level3_0 | Updating lookahead routing information for flit 2.
3 | network_0/router_level3_1 | Beginning VC allocation for VC 0 at input 5 (front: 7).
3 | network_0/router_level3_1 |   VC 0 at output 11 is in use by VC 0 at input 1 (front flit: 4).
3 | network_0/router_level3_1 |   Requesting VC 1 at output 11 (in_pri: 0, out_pri: 0).
3 | network_0/router_level3_1 |   Requesting VC 2 at output 11 (in_pri: 0, out_pri: 0).
3 | network_0/router_level3_1 |   Requesting VC 3 at output 11 (in_pri: 0, out_pri: 0).
3 | network_0/router_level3_1/vc_allocator | Input requests = [ 5 -> [ 36@0 37@0 38@0 39@0 ]  17 -> [ 57@0 58@0 59@0 ]  20 -> [ 45@0 46@0 47@0 ]  21 -> [ 57@0 58@0 59@0 ]  25 -> [ 49@0 50@0 51@0 ]  ], output requests = [ 36 -> [ 5@0 ]  37 -> [ 5@0 ]  38 -> [ 5@0 ]  39 -> [ 5@0 ]  45 -> [ 20@0 ]  46 -> [ 20@0 ]  47 -> [ 20@0 ]  49 -> [ 25@0 ]  50 -> [ 25@0 ]  51 -> [ 25@0 ]  57 -> [ 17@0 21@0 ]  58 -> [ 17@0 21@0 ]  59 -> [ 17@0 21@0 ]  ].
3 | network_0/router_level3_1/vc_allocator | Input grants = [ 5 -> 36  17 -> 57  20 -> 45  25 -> 49  ], output grants = [ 36 -> 5  45 -> 20  49 -> 25  57 -> 17  ].
3 | network_0/router_level3_1 | Assigning VC 1 at output 11 to VC 0 at input 5.
3 | network_0/router_level3_1 | Beginning switch allocation for VC 0 at input 0 (front: 3).
3 | network_0/router_level3_1 |   Requesting output 14.0 (non-spec, pri: 0).
3 | network_0/router_level3_1 | Beginning switch allocation for VC 0 at input 1 (front: 4).
3 | network_0/router_level3_1 |   Requesting output 11.0 (non-spec, pri: 0).
3 | network_0/router_level3_1 | Beginning switch allocation for VC 0 at input 3 (front: 5).
3 | network_0/router_level3_1 |   Requesting output 12.0 (non-spec, pri: 0).
3 | network_0/router_level3_1 | Beginning switch allocation for VC 0 at input 4 (front: 6).
3 | network_0/router_level3_1 |   Requesting output 13.0 (non-spec, pri: 0).
3 | network_0/router_level3_1 | Beginning switch allocation for VC 0 at input 6 (front: 8).
3 | network_0/router_level3_1 |   Requesting output 8.0 (non-spec, pri: 0).
3 | network_0/router_level3_1 | Beginning switch allocation for VC 0 at input 7 (front: 9).
3 | network_0/router_level3_1 |   Requesting output 10.0 (non-spec, pri: 0).
3 | network_0/router_level3_1/sw_allocator | Input requests = [ 0 -> [ 14@0 ]  1 -> [ 11@0 ]  3 -> [ 12@0 ]  4 -> [ 13@0 ]  6 -> [ 8@0 ]  7 -> [ 10@0 ]  ], output requests = [ 8 -> [ 6@0 ]  10 -> [ 7@0 ]  11 -> [ 1@0 ]  12 -> [ 3@0 ]  13 -> [ 4@0 ]  14 -> [ 0@0 ]  ].
3 | network_0/router_level3_1/sw_allocator | Input grants = [ 0 -> 14  1 -> 11  3 -> 12  4 -> 13  6 -> 8  7 -> 10  ], output grants = [ 8 -> 6  10 -> 7  11 -> 1  12 -> 3  13 -> 4  14 -> 0  ].
3 | network_0/router_level3_1 | Assigning output 14.0 to VC 0 at input 0.0.
3 | network_0/router_level3_1 | Assigning output 11.0 to VC 0 at input 1.0.
3 | network_0/router_level3_1 | Assigning output 12.0 to VC 0 at input 3.0.
3 | network_0/router_level3_1 | Assigning output 13.0 to VC 0 at input 4.0.
3 | network_0/router_level3_1 | Assigning output 8.0 to VC 0 at input 6.0.
3 | network_0/router_level3_1 | Assigning output 10.0 to VC 0 at input 7.0.
3 | network_0/router_level3_1 | Completed VC allocation for VC 0 at input 5 (front: 7).
3 | network_0/router_level3_1 |   Acquiring assigned VC 1 at output 11.
3 | network_0/router_level3_1/buf_5/vc_0 | Changing state from vc_alloc to active.
3 | network_0/router_level3_1 | Completed switch allocation for VC 0 at input 0 (front: 3).
3 | network_0/router_level3_1 |   Scheduling switch connection from input 0.0 to output 14.0.
3 | network_0/router_level3_1 | Updating lookahead routing information for flit 3.
3 | network_0/router_level3_1 | Completed switch allocation for VC 0 at input 1 (front: 4).
3 | network_0/router_level3_1 |   Scheduling switch connection from input 1.0 to output 11.0.
3 | network_0/router_level3_1 | Updating lookahead routing information for flit 4.
3 | network_0/router_level3_1 | Completed switch allocation for VC 0 at input 3 (front: 5).
3 | network_0/router_level3_1 |   Scheduling switch connection from input 3.0 to output 12.0.
3 | network_0/router_level3_1 | Updating lookahead routing information for flit 5.
3 | network_0/router_level3_1 | Completed switch allocation for VC 0 at input 4 (front: 6).
3 | network_0/router_level3_1 |   Scheduling switch connection from input 4.0 to output 13.0.
3 | network_0/router_level3_1 | Updating lookahead routing information for flit 6.
3 | network_0/router_level3_1 | Completed switch allocation for VC 0 at input 6 (front: 8).
3 | network_0/router_level3_1 |   Scheduling switch connection from input 6.0 to output 8.0.
3 | network_0/router_level3_1 | Updating lookahead routing information for flit 8.
3 | network_0/router_level3_1 | Completed switch allocation for VC 0 at input 7 (front: 9).
3 | network_0/router_level3_1 |   Scheduling switch connection from input 7.0 to output 10.0.
3 | network_0/router_level3_1 | Updating lookahead routing information for flit 9.
3 | network_0/router_level3_2 | Beginning switch allocation for VC 0 at input 1 (front: 10).
3 | network_0/router_level3_2 |   Requesting output 13.0 (non-spec, pri: 0).
3 | network_0/router_level3_2/sw_allocator | Input requests = [ 1 -> [ 13@0 ]  2 -> [ 14@0 ]  3 -> [ 15@0 ]  5 -> [ 8@0 ]  7 -> [ 11@0 ]  ], output requests = [ 8 -> [ 5@0 ]  11 -> [ 7@0 ]  13 -> [ 1@0 ]  14 -> [ 2@0 ]  15 -> [ 3@0 ]  ].
3 | network_0/router_level3_2/sw_allocator | Input grants = [ 1 -> 13  2 -> 14  3 -> 15  5 -> 8  7 -> 11  ], output grants = [ 8 -> 5  11 -> 7  13 -> 1  14 -> 2  15 -> 3  ].
3 | network_0/router_level3_2 | Assigning output 13.0 to VC 0 at input 1.0.
3 | network_0/router_level3_2 | Completed switch allocation for VC 0 at input 1 (front: 10).
3 | network_0/router_level3_2 |   Scheduling switch connection from input 1.0 to output 13.0.
3 | network_0/router_level3_2 | Updating lookahead routing information for flit 10.
4 | network_0/router_level3_0 | Beginning crossbar traversal for flit 1 from input 4.0 to output 13.0.
4 | network_0/router_level3_0 | Beginning crossbar traversal for flit 2 from input 5.0 to output 14.0.
4 | network_0/router_level3_0 | Completed crossbar traversal for flit 1 from input 4.0 to output 13.0.
4 | network_0/router_level3_0 | Buffering flit 1 at output 13.
4 | network_0/router_level3_0 | Completed crossbar traversal for flit 2 from input 5.0 to output 14.0.
4 | network_0/router_level3_0 | Buffering flit 2 at output 14.
4 | network_0/router_level3_1 | Beginning switch allocation for VC 0 at input 5 (front: 7).
4 | network_0/router_level3_1 |   Requesting output 11.0 (non-spec, pri: 0).
4 | network_0/router_level3_1/sw_allocator | Input requests = [ 1 -> [ 9@0 ]  4 -> [ 14@0 ]  5 -> [ 11@0 ]  6 -> [ 12@0 ]  ], output requests = [ 9 -> [ 1@0 ]  11 -> [ 5@0 ]  12 -> [ 6@0 ]  14 -> [ 4@0 ]  ].
4 | network_0/router_level3_1/sw_allocator | Input grants = [ 1 -> 9  4 -> 14  5 -> 11  6 -> 12  ], output grants = [ 9 -> 1  11 -> 5  12 -> 6  14 -> 4  ].
4 | network_0/router_level3_1 | Assigning output 11.0 to VC 0 at input 5.0.
4 | network_0/router_level3_1 | Beginning crossbar traversal for flit 3 from input 0.0 to output 14.0.
4 | network_0/router_level3_1 | Beginning crossbar traversal for flit 4 from input 1.0 to output 11.0.
4 | network_0/router_level3_1 | Beginning crossbar traversal for flit 5 from input 3.0 to output 12.0.
4 | network_0/router_level3_1 | Beginning crossbar traversal for flit 6 from input 4.0 to output 13.0.
4 | network_0/router_level3_1 | Beginning crossbar traversal for flit 8 from input 6.0 to output 8.0.
4 | network_0/router_level3_1 | Beginning crossbar traversal for flit 9 from input 7.0 to output 10.0.
4 | network_0/router_level3_1 | Completed switch allocation for VC 0 at input 5 (front: 7).
4 | network_0/router_level3_1 |   Scheduling switch connection from input 5.0 to output 11.0.
4 | network_0/router_level3_1 | Updating lookahead routing information for flit 7.
4 | network_0/router_level3_1 | Completed crossbar traversal for flit 3 from input 0.0 to output 14.0.
4 | network_0/router_level3_1 | Buffering flit 3 at output 14.
4 | network_0/router_level3_1 | Completed crossbar traversal for flit 4 from input 1.0 to output 11.0.
4 | network_0/router_level3_1 | Buffering flit 4 at output 11.
4 | network_0/router_level3_1 | Completed crossbar traversal for flit 5 from input 3.0 to output 12.0.
4 | network_0/router_level3_1 | Buffering flit 5 at output 12.
4 | network_0/router_level3_1 | Completed crossbar traversal for flit 6 from input 4.0 to output 13.0.
4 | network_0/router_level3_1 | Buffering flit 6 at output 13.
4 | network_0/router_level3_1 | Completed crossbar traversal for flit 8 from input 6.0 to output 8.0.
4 | network_0/router_level3_1 | Buffering flit 8 at output 8.
4 | network_0/router_level3_1 | Completed crossbar traversal for flit 9 from input 7.0 to output 10.0.
4 | network_0/router_level3_1 | Buffering flit 9 at output 10.
4 | network_0/router_level3_2 | Beginning crossbar traversal for flit 10 from input 1.0 to output 13.0.
4 | network_0/router_level3_2 | Completed crossbar traversal for flit 10 from input 1.0 to output 13.0.
4 | network_0/router_level3_2 | Buffering flit 10 at output 13.
4 | network_0/router_level3_0 | Sending flit 1 to channel at output 13.
4 | network_0/router_level3_0 | Sending flit 2 to channel at output 14.
4 | network_0/router_level3_1 | Sending flit 8 to channel at output 8.
4 | network_0/router_level3_1 | Sending flit 9 to channel at output 10.
4 | network_0/router_level3_1 | Sending flit 4 to channel at output 11.
4 | network_0/router_level3_1 | Sending flit 5 to channel at output 12.
4 | network_0/router_level3_1 | Sending flit 6 to channel at output 13.
4 | network_0/router_level3_1 | Sending flit 3 to channel at output 14.
4 | network_0/router_level3_2 | Sending flit 10 to channel at output 13.
5 | network_0/network_0_fchan_20485 | Beginning channel traversal for flit 1 with delay 1.
5 | network_0/network_0_fchan_20486 | Beginning channel traversal for flit 2 with delay 1.
5 | network_0/network_0_fchan_20488 | Beginning channel traversal for flit 8 with delay 1.
5 | network_0/network_0_fchan_20490 | Beginning channel traversal for flit 9 with delay 1.
5 | network_0/network_0_fchan_20491 | Beginning channel traversal for flit 4 with delay 1.
5 | network_0/network_0_fchan_20492 | Beginning channel traversal for flit 5 with delay 1.
5 | network_0/network_0_fchan_20493 | Beginning channel traversal for flit 6 with delay 1.
5 | network_0/network_0_fchan_20494 | Beginning channel traversal for flit 3 with delay 1.
5 | network_0/network_0_fchan_20501 | Beginning channel traversal for flit 10 with delay 1.
5 | network_0/router_level3_1 | Beginning crossbar traversal for flit 7 from input 5.0 to output 11.0.
5 | network_0/router_level3_1 | Completed crossbar traversal for flit 7 from input 5.0 to output 11.0.
5 | network_0/router_level3_1 | Buffering flit 7 at output 11.
5 | network_0/network_0_fchan_20485 | Completed channel traversal for flit 1.
5 | network_0/network_0_fchan_20486 | Completed channel traversal for flit 2.
5 | network_0/network_0_fchan_20488 | Completed channel traversal for flit 8.
5 | network_0/network_0_fchan_20490 | Completed channel traversal for flit 9.
5 | network_0/network_0_fchan_20491 | Completed channel traversal for flit 4.
5 | network_0/network_0_fchan_20492 | Completed channel traversal for flit 5.
5 | network_0/network_0_fchan_20493 | Completed channel traversal for flit 6.
5 | network_0/network_0_fchan_20494 | Completed channel traversal for flit 3.
5 | network_0/network_0_fchan_20501 | Completed channel traversal for flit 10.
5 | network_0/router_level3_1 | Sending flit 7 to channel at output 11.
6 | network_0/network_0_fchan_20491 | Beginning channel traversal for flit 7 with delay 1.
6 | network_0/router_level2_0 | Received flit 8 from channel at input 1.
6 | network_0/router_level2_2 | Received flit 9 from channel at input 1.
6 | network_0/router_level2_3 | Received flit 4 from channel at input 1.
6 | network_0/router_level2_4 | Received flit 5 from channel at input 1.
6 | network_0/router_level2_5 | Received flit 1 from channel at input 0.
6 | network_0/router_level2_5 | Received flit 6 from channel at input 1.
6 | network_0/router_level2_5 | Received flit 10 from channel at input 2.
6 | network_0/router_level2_6 | Received flit 2 from channel at input 0.
6 | network_0/router_level2_6 | Received flit 3 from channel at input 1.
6 | network_0/router_level2_0 | Adding flit 8 to VC 0 at input 1 (state: idle, empty).
6 | network_0/router_level2_0 | Using precomputed lookahead routing information for VC 0 at input 1 (front: 8).
6 | network_0/router_level2_0/buf_1/vc_0 | Changing state from idle to vc_alloc.
6 | network_0/router_level2_0 | Beginning VC allocation for VC 0 at input 1 (front: 8).
6 | network_0/router_level2_0 |   Requesting VC 0 at output 12 (in_pri: 0, out_pri: 0).
6 | network_0/router_level2_0 |   Requesting VC 1 at output 12 (in_pri: 0, out_pri: 0).
6 | network_0/router_level2_0 |   Requesting VC 2 at output 12 (in_pri: 0, out_pri: 0).
6 | network_0/router_level2_0 |   Requesting VC 3 at output 12 (in_pri: 0, out_pri: 0).
6 | network_0/router_level2_0/vc_allocator | Input requests = [ 4 -> [ 48@0 49@0 50@0 51@0 ]  8 -> [ 60@0 61@0 62@0 63@0 ]  16 -> [ 60@0 61@0 62@0 63@0 ]  20 -> [ 44@0 45@0 46@0 47@0 ]  24 -> [ 40@0 41@0 42@0 43@0 ]  ], output requests = [ 40 -> [ 24@0 ]  41 -> [ 24@0 ]  42 -> [ 24@0 ]  43 -> [ 24@0 ]  44 -> [ 20@0 ]  45 -> [ 20@0 ]  46 -> [ 20@0 ]  47 -> [ 20@0 ]  48 -> [ 4@0 ]  49 -> [ 4@0 ]  50 -> [ 4@0 ]  51 -> [ 4@0 ]  60 -> [ 8@0 16@0 ]  61 -> [ 8@0 16@0 ]  62 -> [ 8@0 16@0 ]  63 -> [ 8@0 16@0 ]  ].
6 | network_0/router_level2_0/vc_allocator | Input grants = [ 4 -> 48  8 -> 60  20 -> 44  24 -> 40  ], output grants = [ 40 -> 24  44 -> 20  48 -> 4  60 -> 8  ].
6 | network_0/router_level2_0 | Assigning VC 0 at output 12 to VC 0 at input 1.
6 | network_0/router_level2_0 | Completed VC allocation for VC 0 at input 1 (front: 8).
6 | network_0/router_level2_0 |   Acquiring assigned VC 0 at output 12.
6 | network_0/router_level2_0/buf_1/vc_0 | Changing state from vc_alloc to active.
6 | network_0/router_level2_2 | Adding flit 9 to VC 0 at input 1 (state: idle, empty).
6 | network_0/router_level2_2 | Using precomputed lookahead routing information for VC 0 at input 1 (front: 9).
6 | network_0/router_level2_2/buf_1/vc_0 | Changing state from idle to vc_alloc.
6 | network_0/router_level2_2 | Beginning VC allocation for VC 0 at input 1 (front: 9).
6 | network_0/router_level2_2 |   Requesting VC 0 at output 8 (in_pri: 0, out_pri: 0).
6 | network_0/router_level2_2 |   Requesting VC 1 at output 8 (in_pri: 0, out_pri: 0).
6 | network_0/router_level2_2 |   Requesting VC 2 at output 8 (in_pri: 0, out_pri: 0).
6 | network_0/router_level2_2 |   Requesting VC 3 at output 8 (in_pri: 0, out_pri: 0).
6 | network_0/router_level2_2/vc_allocator | Input requests = [ 4 -> [ 32@0 33@0 34@0 35@0 ]  16 -> [ 32@0 33@0 34@0 35@0 ]  28 -> [ 60@0 61@0 62@0 63@0 ]  ], output requests = [ 32 -> [ 4@0 16@0 ]  33 -> [ 4@0 16@0 ]  34 -> [ 4@0 16@0 ]  35 -> [ 4@0 16@0 ]  60 -> [ 28@0 ]  61 -> [ 28@0 ]  62 -> [ 28@0 ]  63 -> [ 28@0 ]  ].
6 | network_0/router_level2_2/vc_allocator | Input grants = [ 4 -> 32  28 -> 60  ], output grants = [ 32 -> 4  60 -> 28  ].
6 | network_0/router_level2_2 | Assigning VC 0 at output 8 to VC 0 at input 1.
6 | network_0/router_level2_2 | Completed VC allocation for VC 0 at input 1 (front: 9).
6 | network_0/router_level2_2 |   Acquiring assigned VC 0 at output 8.
6 | network_0/router_level2_2/buf_1/vc_0 | Changing state from vc_alloc to active.
6 | network_0/router_level2_3 | Adding flit 4 to VC 0 at input 1 (state: idle, empty).
6 | network_0/router_level2_3 | Using precomputed lookahead routing information for VC 0 at input 1 (front: 4).
6 | network_0/router_level2_3/buf_1/vc_0 | Changing state from idle to vc_alloc.
6 | network_0/router_level2_3 | Beginning VC allocation for VC 0 at input 1 (front: 4).
6 | network_0/router_level2_3 |   Requesting VC 0 at output 10 (in_pri: 0, out_pri: 0).
6 | network_0/router_level2_3 |   Requesting VC 1 at output 10 (in_pri: 0, out_pri: 0).
6 | network_0/router_level2_3 |   Requesting VC 2 at output 10 (in_pri: 0, out_pri: 0).
6 | network_0/router_level2_3 |   Requesting VC 3 at output 10 (in_pri: 0, out_pri: 0).
6 | network_0/router_level2_3/vc_allocator | Input requests = [ 4 -> [ 40@0 41@0 42@0 43@0 ]  8 -> [ 44@0 45@0 46@0 47@0 ]  16 -> [ 44@0 45@0 46@0 47@0 ]  20 -> [ 36@0 37@0 38@0 39@0 ]  28 -> [ 48@0 49@0 50@0 51@0 ]  ], output requests = [ 36 -> [ 20@0 ]  37 -> [ 20@0 ]  38 -> [ 20@0 ]  39 -> [ 20@0 ]  40 -> [ 4@0 ]  41 -> [ 4@0 ]  42 -> [ 4@0 ]  43 -> [ 4@0 ]  44 -> [ 8@0 16@0 ]  45 -> [ 8@0 16@0 ]  46 -> [ 8@0 16@0 ]  47 -> [ 8@0 16@0 ]  48 -> [ 28@0 ]  49 -> [ 28@0 ]  50 -> [ 28@0 ]  51 -> [ 28@0 ]  ].
6 | network_0/router_level2_3/vc_allocator | Input grants = [ 4 -> 40  8 -> 44  20 -> 36  28 -> 48  ], output grants = [ 36 -> 20  40 -> 4  44 -> 8  48 -> 28  ].
6 | network_0/router_level2_3 | Assigning VC 0 at output 10 to VC 0 at input 1.
6 | network_0/router_level2_3 | Completed VC allocation for VC 0 at input 1 (front: 4).
6 | network_0/router_level2_3 |   Acquiring assigned VC 0 at output 10.
6 | network_0/router_level2_3/buf_1/vc_0 | Changing state from vc_alloc to active.
6 | network_0/router_level2_4 | Adding flit 5 to VC 0 at input 1 (state: idle, empty).
6 | network_0/router_level2_4 | Using precomputed lookahead routing information for VC 0 at input 1 (front: 5).
6 | network_0/router_level2_4/buf_1/vc_0 | Changing state from idle to vc_alloc.
6 | network_0/router_level2_4 | Beginning VC allocation for VC 0 at input 1 (front: 5).
6 | network_0/router_level2_4 |   Requesting VC 0 at output 10 (in_pri: 0, out_pri: 0).
6 | network_0/router_level2_4 |   Requesting VC 1 at output 10 (in_pri: 0, out_pri: 0).
6 | network_0/router_level2_4 |   Requesting VC 2 at output 10 (in_pri: 0, out_pri: 0).
6 | network_0/router_level2_4 |   Requesting VC 3 at output 10 (in_pri: 0, out_pri: 0).
6 | network_0/router_level2_4/vc_allocator | Input requests = [ 0 -> [ 48@0 49@0 50@0 51@0 ]  4 -> [ 40@0 41@0 42@0 43@0 ]  20 -> [ 48@0 49@0 50@0 51@0 ]  ], output requests = [ 40 -> [ 4@0 ]  41 -> [ 4@0 ]  42 -> [ 4@0 ]  43 -> [ 4@0 ]  48 -> [ 0@0 20@0 ]  49 -> [ 0@0 20@0 ]  50 -> [ 0@0 20@0 ]  51 -> [ 0@0 20@0 ]  ].
6 | network_0/router_level2_4/vc_allocator | Input grants = [ 0 -> 48  4 -> 40  ], output grants = [ 40 -> 4  48 -> 0  ].
6 | network_0/router_level2_4 | Assigning VC 0 at output 10 to VC 0 at input 1.
6 | network_0/router_level2_4 | Completed VC allocation for VC 0 at input 1 (front: 5).
6 | network_0/router_level2_4 |   Acquiring assigned VC 0 at output 10.
6 | network_0/router_level2_4/buf_1/vc_0 | Changing state from vc_alloc to active.
6 | network_0/router_level2_5 | Adding flit 1 to VC 0 at input 0 (state: idle, empty).
6 | network_0/router_level2_5 | Using precomputed lookahead routing information for VC 0 at input 0 (front: 1).
6 | network_0/router_level2_5/buf_0/vc_0 | Changing state from idle to vc_alloc.
6 | network_0/router_level2_5 | Adding flit 6 to VC 0 at input 1 (state: idle, empty).
6 | network_0/router_level2_5 | Using precomputed lookahead routing information for VC 0 at input 1 (front: 6).
6 | network_0/router_level2_5/buf_1/vc_0 | Changing state from idle to vc_alloc.
6 | network_0/router_level2_5 | Adding flit 10 to VC 0 at input 2 (state: idle, empty).
6 | network_0/router_level2_5 | Using precomputed lookahead routing information for VC 0 at input 2 (front: 10).
6 | network_0/router_level2_5/buf_2/vc_0 | Changing state from idle to vc_alloc.
6 | network_0/router_level2_5 | Beginning VC allocation for VC 0 at input 0 (front: 1).
6 | network_0/router_level2_5 |   Requesting VC 0 at output 15 (in_pri: 0, out_pri: 0).
6 | network_0/router_level2_5 |   Requesting VC 1 at output 15 (in_pri: 0, out_pri: 0).
6 | network_0/router_level2_5 |   Requesting VC 2 at output 15 (in_pri: 0, out_pri: 0).
6 | network_0/router_level2_5 |   Requesting VC 3 at output 15 (in_pri: 0, out_pri: 0).
6 | network_0/router_level2_5 | Beginning VC allocation for VC 0 at input 1 (front: 6).
6 | network_0/router_level2_5 |   Requesting VC 0 at output 12 (in_pri: 0, out_pri: 0).
6 | network_0/router_level2_5 |   Requesting VC 1 at output 12 (in_pri: 0, out_pri: 0).
6 | network_0/router_level2_5 |   Requesting VC 2 at output 12 (in_pri: 0, out_pri: 0).
6 | network_0/router_level2_5 |   Requesting VC 3 at output 12 (in_pri: 0, out_pri: 0).
6 | network_0/router_level2_5 | Beginning VC allocation for VC 0 at input 2 (front: 10).
6 | network_0/router_level2_5 |   Requesting VC 0 at output 11 (in_pri: 0, out_pri: 0).
6 | network_0/router_level2_5 |   Requesting VC 1 at output 11 (in_pri: 0, out_pri: 0).
6 | network_0/router_level2_5 |   Requesting VC 2 at output 11 (in_pri: 0, out_pri: 0).
6 | network_0/router_level2_5 |   Requesting VC 3 at output 11 (in_pri: 0, out_pri: 0).
6 | network_0/router_level2_5/vc_allocator | Input requests = [ 0 -> [ 60@0 61@0 62@0 63@0 ]  4 -> [ 48@0 49@0 50@0 51@0 ]  8 -> [ 44@0 45@0 46@0 47@0 ]  24 -> [ 56@0 57@0 58@0 59@0 ]  28 -> [ 32@0 33@0 34@0 35@0 ]  ], output requests = [ 32 -> [ 28@0 ]  33 -> [ 28@0 ]  34 -> [ 28@0 ]  35 -> [ 28@0 ]  44 -> [ 8@0 ]  45 -> [ 8@0 ]  46 -> [ 8@0 ]  47 -> [ 8@0 ]  48 -> [ 4@0 ]  49 -> [ 4@0 ]  50 -> [ 4@0 ]  51 -> [ 4@0 ]  56 -> [ 24@0 ]  57 -> [ 24@0 ]  58 -> [ 24@0 ]  59 -> [ 24@0 ]  60 -> [ 0@0 ]  61 -> [ 0@0 ]  62 -> [ 0@0 ]  63 -> [ 0@0 ]  ].
6 | network_0/router_level2_5/vc_allocator | Input grants = [ 0 -> 60  4 -> 48  8 -> 44  24 -> 56  28 -> 32  ], output grants = [ 32 -> 28  44 -> 8  48 -> 4  56 -> 24  60 -> 0  ].
6 | network_0/router_level2_5 | Assigning VC 0 at output 15 to VC 0 at input 0.
6 | network_0/router_level2_5 | Assigning VC 0 at output 12 to VC 0 at input 1.
6 | network_0/router_level2_5 | Assigning VC 0 at output 11 to VC 0 at input 2.
6 | network_0/router_level2_5 | Completed VC allocation for VC 0 at input 0 (front: 1).
6 | network_0/router_level2_5 |   Acquiring assigned VC 0 at output 15.
6 | network_0/router_level2_5/buf_0/vc_0 | Changing state from vc_alloc to active.
6 | network_0/router_level2_5 | Completed VC allocation for VC 0 at input 1 (front: 6).
6 | network_0/router_level2_5 |   Acquiring assigned VC 0 at output 12.
6 | network_0/router_level2_5/buf_1/vc_0 | Changing state from vc_alloc to active.
6 | network_0/router_level2_5 | Completed VC allocation for VC 0 at input 2 (front: 10).
6 | network_0/router_level2_5 |   Acquiring assigned VC 0 at output 11.
6 | network_0/router_level2_5/buf_2/vc_0 | Changing state from vc_alloc to active.
6 | network_0/router_level2_6 | Adding flit 2 to VC 0 at input 0 (state: idle, empty).
6 | network_0/router_level2_6 | Using precomputed lookahead routing information for VC 0 at input 0 (front: 2).
6 | network_0/router_level2_6/buf_0/vc_0 | Changing state from idle to vc_alloc.
6 | network_0/router_level2_6 | Adding flit 3 to VC 0 at input 1 (state: idle, empty).
6 | network_0/router_level2_6 | Using precomputed lookahead routing information for VC 0 at input 1 (front: 3).
6 | network_0/router_level2_6/buf_1/vc_0 | Changing state from idle to vc_alloc.
6 | network_0/router_level2_6 | Beginning VC allocation for VC 0 at input 0 (front: 2).
6 | network_0/router_level2_6 |   Requesting VC 0 at output 14 (in_pri: 0, out_pri: 0).
6 | network_0/router_level2_6 |   Requesting VC 1 at output 14 (in_pri: 0, out_pri: 0).
6 | network_0/router_level2_6 |   Requesting VC 2 at output 14 (in_pri: 0, out_pri: 0).
6 | network_0/router_level2_6 |   Requesting VC 3 at output 14 (in_pri: 0, out_pri: 0).
6 | network_0/router_level2_6 | Beginning VC allocation for VC 0 at input 1 (front: 3).
6 | network_0/router_level2_6 |   Requesting VC 0 at output 13 (in_pri: 0, out_pri: 0).
6 | network_0/router_level2_6 |   Requesting VC 1 at output 13 (in_pri: 0, out_pri: 0).
6 | network_0/router_level2_6 |   Requesting VC 2 at output 13 (in_pri: 0, out_pri: 0).
6 | network_0/router_level2_6 |   Requesting VC 3 at output 13 (in_pri: 0, out_pri: 0).
6 | network_0/router_level2_6/vc_allocator | Input requests = [ 0 -> [ 56@0 57@0 58@0 59@0 ]  4 -> [ 52@0 53@0 54@0 55@0 ]  8 -> [ 40@0 41@0 42@0 43@0 ]  12 -> [ 52@0 53@0 54@0 55@0 ]  20 -> [ 60@0 61@0 62@0 63@0 ]  24 -> [ 36@0 37@0 38@0 39@0 ]  ], output requests = [ 36 -> [ 24@0 ]  37 -> [ 24@0 ]  38 -> [ 24@0 ]  39 -> [ 24@0 ]  40 -> [ 8@0 ]  41 -> [ 8@0 ]  42 -> [ 8@0 ]  43 -> [ 8@0 ]  52 -> [ 4@0 12@0 ]  53 -> [ 4@0 12@0 ]  54 -> [ 4@0 12@0 ]  55 -> [ 4@0 12@0 ]  56 -> [ 0@0 ]  57 -> [ 0@0 ]  58 -> [ 0@0 ]  59 -> [ 0@0 ]  60 -> [ 20@0 ]  61 -> [ 20@0 ]  62 -> [ 20@0 ]  63 -> [ 20@0 ]  ].
6 | network_0/router_level2_6/vc_allocator | Input grants = [ 0 -> 56  4 -> 52  8 -> 40  20 -> 60  24 -> 36  ], output grants = [ 36 -> 24  40 -> 8  52 -> 4  56 -> 0  60 -> 20  ].
6 | network_0/router_level2_6 | Assigning VC 0 at output 14 to VC 0 at input 0.
6 | network_0/router_level2_6 | Assigning VC 0 at output 13 to VC 0 at input 1.
6 | network_0/router_level2_6 | Completed VC allocation for VC 0 at input 0 (front: 2).
6 | network_0/router_level2_6 |   Acquiring assigned VC 0 at output 14.
6 | network_0/router_level2_6/buf_0/vc_0 | Changing state from vc_alloc to active.
6 | network_0/router_level2_6 | Completed VC allocation for VC 0 at input 1 (front: 3).
6 | network_0/router_level2_6 |   Acquiring assigned VC 0 at output 13.
6 | network_0/router_level2_6/buf_1/vc_0 | Changing state from vc_alloc to active.
6 | network_0/network_0_fchan_20491 | Completed channel traversal for flit 7.
7 | network_0/router_level2_3 | Received flit 7 from channel at input 1.
7 | network_0/router_level2_0 | Beginning switch allocation for VC 0 at input 1 (front: 8).
7 | network_0/router_level2_0 |   Requesting output 12.0 (non-spec, pri: 0).
7 | network_0/router_level2_0/sw_allocator | Input requests = [ 1 -> [ 12@0 ]  2 -> [ 15@0 ]  5 -> [ 11@0 ]  6 -> [ 10@0 ]  ], output requests = [ 10 -> [ 6@0 ]  11 -> [ 5@0 ]  12 -> [ 1@0 ]  15 -> [ 2@0 ]  ].
7 | network_0/router_level2_0/sw_allocator | Input grants = [ 1 -> 12  2 -> 15  5 -> 11  6 -> 10  ], output grants = [ 10 -> 6  11 -> 5  12 -> 1  15 -> 2  ].
7 | network_0/router_level2_0 | Assigning output 12.0 to VC 0 at input 1.0.
7 | network_0/router_level2_0 | Completed switch allocation for VC 0 at input 1 (front: 8).
7 | network_0/router_level2_0 |   Scheduling switch connection from input 1.0 to output 12.0.
7 | network_0/router_level2_0 | Updating lookahead routing information for flit 8.
7 | network_0/router_level2_2 | Beginning switch allocation for VC 0 at input 1 (front: 9).
7 | network_0/router_level2_2 |   Requesting output 8.0 (non-spec, pri: 0).
7 | network_0/router_level2_2/sw_allocator | Input requests = [ 1 -> [ 8@0 ]  7 -> [ 15@0 ]  ], output requests = [ 8 -> [ 1@0 ]  15 -> [ 7@0 ]  ].
7 | network_0/router_level2_2/sw_allocator | Input grants = [ 1 -> 8  7 -> 15  ], output grants = [ 8 -> 1  15 -> 7  ].
7 | network_0/router_level2_2 | Assigning output 8.0 to VC 0 at input 1.0.
7 | network_0/router_level2_2 | Completed switch allocation for VC 0 at input 1 (front: 9).
7 | network_0/router_level2_2 |   Scheduling switch connection from input 1.0 to output 8.0.
7 | network_0/router_level2_2 | Updating lookahead routing information for flit 9.
7 | network_0/router_level2_3 | Adding flit 7 to VC 1 at input 1 (state: idle, empty).
7 | network_0/router_level2_3 | Using precomputed lookahead routing information for VC 1 at input 1 (front: 7).
7 | network_0/router_level2_3/buf_1/vc_1 | Changing state from idle to vc_alloc.
7 | network_0/router_level2_3 | Beginning VC allocation for VC 1 at input 1 (front: 7).
7 | network_0/router_level2_3 |   VC 0 at output 9 is in use by VC 0 at input 5 (front flit: 26).
7 | network_0/router_level2_3 |   Requesting VC 1 at output 9 (in_pri: 0, out_pri: 0).
7 | network_0/router_level2_3 |   Requesting VC 2 at output 9 (in_pri: 0, out_pri: 0).
7 | network_0/router_level2_3 |   Requesting VC 3 at output 9 (in_pri: 0, out_pri: 0).
7 | network_0/router_level2_3/vc_allocator | Input requests = [ 0 -> [ 41@0 42@0 43@0 ]  5 -> [ 37@0 38@0 39@0 ]  9 -> [ 49@0 50@0 51@0 ]  16 -> [ 45@0 46@0 47@0 ]  17 -> [ 49@0 50@0 51@0 ]  21 -> [ 60@0 61@0 62@0 63@0 ]  29 -> [ 56@0 57@0 58@0 59@0 ]  ], output requests = [ 37 -> [ 5@0 ]  38 -> [ 5@0 ]  39 -> [ 5@0 ]  41 -> [ 0@0 ]  42 -> [ 0@0 ]  43 -> [ 0@0 ]  45 -> [ 16@0 ]  46 -> [ 16@0 ]  47 -> [ 16@0 ]  49 -> [ 9@0 17@0 ]  50 -> [ 9@0 17@0 ]  51 -> [ 9@0 17@0 ]  56 -> [ 29@0 ]  57 -> [ 29@0 ]  58 -> [ 29@0 ]  59 -> [ 29@0 ]  60 -> [ 21@0 ]  61 -> [ 21@0 ]  62 -> [ 21@0 ]  63 -> [ 21@0 ]  ].
7 | network_0/router_level2_3/vc_allocator | Input grants = [ 0 -> 41  5 -> 37  9 -> 49  16 -> 45  21 -> 60  29 -> 56  ], output grants = [ 37 -> 5  41 -> 0  45 -> 16  49 -> 9  56 -> 29  60 -> 21  ].
7 | network_0/router_level2_3 | Assigning VC 1 at output 9 to VC 1 at input 1.
7 | network_0/router_level2_3 | Beginning switch allocation for VC 0 at input 1 (front: 4).
7 | network_0/router_level2_3 |   Requesting output 10.0 (non-spec, pri: 0).
7 | network_0/router_level2_3/sw_allocator | Input requests = [ 1 -> [ 10@0 ]  2 -> [ 11@0 ]  5 -> [ 9@0 ]  7 -> [ 12@0 ]  ], output requests = [ 9 -> [ 5@0 ]  10 -> [ 1@0 ]  11 -> [ 2@0 ]  12 -> [ 7@0 ]  ].
7 | network_0/router_level2_3/sw_allocator | Input grants = [ 1 -> 10  2 -> 11  5 -> 9  7 -> 12  ], output grants = [ 9 -> 5  10 -> 1  11 -> 2  12 -> 7  ].
7 | network_0/router_level2_3 | Assigning output 10.0 to VC 0 at input 1.0.
7 | network_0/router_level2_3 | Completed VC allocation for VC 1 at input 1 (front: 7).
7 | network_0/router_level2_3 |   Acquiring assigned VC 1 at output 9.
7 | network_0/router_level2_3/buf_1/vc_1 | Changing state from vc_alloc to active.
7 | network_0/router_level2_3 | Completed switch allocation for VC 0 at input 1 (front: 4).
7 | network_0/router_level2_3 |   Scheduling switch connection from input 1.0 to output 10.0.
7 | network_0/router_level2_3 | Updating lookahead routing information for flit 4.
7 | network_0/router_level2_4 | Beginning switch allocation for VC 0 at input 1 (front: 5).
7 | network_0/router_level2_4 |   Requesting output 10.0 (non-spec, pri: 0).
7 | network_0/router_level2_4/sw_allocator | Input requests = [ 0 -> [ 12@0 ]  1 -> [ 10@0 ]  ], output requests = [ 10 -> [ 1@0 ]  12 -> [ 0@0 ]  ].
7 | network_0/router_level2_4/sw_allocator | Input grants = [ 0 -> 12  1 -> 10  ], output grants = [ 10 -> 1  12 -> 0  ].
7 | network_0/router_level2_4 | Assigning output 10.0 to VC 0 at input 1.0.
7 | network_0/router_level2_4 | Completed switch allocation for VC 0 at input 1 (front: 5).
7 | network_0/router_level2_4 |   Scheduling switch connection from input 1.0 to output 10.0.
7 | network_0/router_level2_4 | Updating lookahead routing information for flit 5.
7 | network_0/router_level2_5 | Beginning switch allocation for VC 0 at input 0 (front: 1).
7 | network_0/router_level2_5 |   Requesting output 15.0 (non-spec, pri: 0).
7 | network_0/router_level2_5 | Beginning switch allocation for VC 0 at input 1 (front: 6).
7 | network_0/router_level2_5 |   Requesting output 12.0 (non-spec, pri: 0).
7 | network_0/router_level2_5 | Beginning switch allocation for VC 0 at input 2 (front: 10).
7 | network_0/router_level2_5 |   Requesting output 11.0 (non-spec, pri: 0).
7 | network_0/router_level2_5/sw_allocator | Input requests = [ 0 -> [ 15@0 ]  1 -> [ 12@0 ]  2 -> [ 11@0 ]  6 -> [ 14@0 ]  7 -> [ 8@0 ]  ], output requests = [ 8 -> [ 7@0 ]  11 -> [ 2@0 ]  12 -> [ 1@0 ]  14 -> [ 6@0 ]  15 -> [ 0@0 ]  ].
7 | network_0/router_level2_5/sw_allocator | Input grants = [ 0 -> 15  1 -> 12  2 -> 11  6 -> 14  7 -> 8  ], output grants = [ 8 -> 7  11 -> 2  12 -> 1  14 -> 6  15 -> 0  ].
7 | network_0/router_level2_5 | Assigning output 15.0 to VC 0 at input 0.0.
7 | network_0/router_level2_5 | Assigning output 12.0 to VC 0 at input 1.0.
7 | network_0/router_level2_5 | Assigning output 11.0 to VC 0 at input 2.0.
7 | network_0/router_level2_5 | Completed switch allocation for VC 0 at input 0 (front: 1).
7 | network_0/router_level2_5 |   Scheduling switch connection from input 0.0 to output 15.0.
7 | network_0/router_level2_5 | Updating lookahead routing information for flit 1.
7 | network_0/router_level2_5 | Completed switch allocation for VC 0 at input 1 (front: 6).
7 | network_0/router_level2_5 |   Scheduling switch connection from input 1.0 to output 12.0.
7 | network_0/router_level2_5 | Updating lookahead routing information for flit 6.
7 | network_0/router_level2_5 | Completed switch allocation for VC 0 at input 2 (front: 10).
7 | network_0/router_level2_5 |   Scheduling switch connection from input 2.0 to output 11.0.
7 | network_0/router_level2_5 | Updating lookahead routing information for flit 10.
7 | network_0/router_level2_6 | Beginning switch allocation for VC 0 at input 0 (front: 2).
7 | network_0/router_level2_6 |   Requesting output 14.0 (non-spec, pri: 0).
7 | network_0/router_level2_6 | Beginning switch allocation for VC 0 at input 1 (front: 3).
7 | network_0/router_level2_6 |   Requesting output 13.0 (non-spec, pri: 0).
7 | network_0/router_level2_6/sw_allocator | Input requests = [ 0 -> [ 14@0 ]  1 -> [ 13@0 ]  2 -> [ 10@0 ]  5 -> [ 15@0 ]  6 -> [ 9@0 ]  ], output requests = [ 9 -> [ 6@0 ]  10 -> [ 2@0 ]  13 -> [ 1@0 ]  14 -> [ 0@0 ]  15 -> [ 5@0 ]  ].
7 | network_0/router_level2_6/sw_allocator | Input grants = [ 0 -> 14  1 -> 13  2 -> 10  5 -> 15  6 -> 9  ], output grants = [ 9 -> 6  10 -> 2  13 -> 1  14 -> 0  15 -> 5  ].
7 | network_0/router_level2_6 | Assigning output 14.0 to VC 0 at input 0.0.
7 | network_0/router_level2_6 | Assigning output 13.0 to VC 0 at input 1.0.
7 | network_0/router_level2_6 | Completed switch allocation for VC 0 at input 0 (front: 2).
7 | network_0/router_level2_6 |   Scheduling switch connection from input 0.0 to output 14.0.
7 | network_0/router_level2_6 | Updating lookahead routing information for flit 2.
7 | network_0/router_level2_6 | Completed switch allocation for VC 0 at input 1 (front: 3).
7 | network_0/router_level2_6 |   Scheduling switch connection from input 1.0 to output 13.0.
7 | network_0/router_level2_6 | Updating lookahead routing information for flit 3.
8 | network_0/router_level2_0 | Beginning crossbar traversal for flit 8 from input 1.0 to output 12.0.
8 | network_0/router_level2_0 | Completed crossbar traversal for flit 8 from input 1.0 to output 12.0.
8 | network_0/router_level2_0 | Buffering flit 8 at output 12.
8 | network_0/router_level2_2 | Beginning crossbar traversal for flit 9 from input 1.0 to output 8.0.
8 | network_0/router_level2_2 | Completed crossbar traversal for flit 9 from input 1.0 to output 8.0.
8 | network_0/router_level2_2 | Buffering flit 9 at output 8.
8 | network_0/router_level2_3 | Beginning switch allocation for VC 1 at input 1 (front: 7).
8 | network_0/router_level2_3 |   Requesting output 9.0 (non-spec, pri: 0).
8 | network_0/router_level2_3/sw_allocator | Input requests = [ 0 -> [ 10@0 ]  1 -> [ 9@0 ]  2 -> [ 12@0 ]  4 -> [ 11@0 ]  5 -> [ 15@0 ]  7 -> [ 14@0 ]  ], output requests = [ 9 -> [ 1@0 ]  10 -> [ 0@0 ]  11 -> [ 4@0 ]  12 -> [ 2@0 ]  14 -> [ 7@0 ]  15 -> [ 5@0 ]  ].
8 | network_0/router_level2_3/sw_allocator | Input grants = [ 0 -> 10  1 -> 9  2 -> 12  4 -> 11  5 -> 15  7 -> 14  ], output grants = [ 9 -> 1  10 -> 0  11 -> 4  12 -> 2  14 -> 7  15 -> 5  ].
8 | network_0/router_level2_3 | Assigning output 9.0 to VC 1 at input 1.0.
8 | network_0/router_level2_3 | Beginning crossbar traversal for flit 4 from input 1.0 to output 10.0.
8 | network_0/router_level2_3 | Completed switch allocation for VC 1 at input 1 (front: 7).
8 | network_0/router_level2_3 |   Scheduling switch connection from input 1.0 to output 9.0.
8 | network_0/router_level2_3 | Updating lookahead routing information for flit 7.
8 | network_0/router_level2_3 | Completed crossbar traversal for flit 4 from input 1.0 to output 10.0.
8 | network_0/router_level2_3 | Buffering flit 4 at output 10.
8 | network_0/router_level2_4 | Beginning crossbar traversal for flit 5 from input 1.0 to output 10.0.
8 | network_0/router_level2_4 | Completed crossbar traversal for flit 5 from input 1.0 to output 10.0.
8 | network_0/router_level2_4 | Buffering flit 5 at output 10.
8 | network_0/router_level2_5 | Beginning crossbar traversal for flit 1 from input 0.0 to output 15.0.
8 | network_0/router_level2_5 | Beginning crossbar traversal for flit 6 from input 1.0 to output 12.0.
8 | network_0/router_level2_5 | Beginning crossbar traversal for flit 10 from input 2.0 to output 11.0.
8 | network_0/router_level2_5 | Completed crossbar traversal for flit 1 from input 0.0 to output 15.0.
8 | network_0/router_level2_5 | Buffering flit 1 at output 15.
8 | network_0/router_level2_5 | Completed crossbar traversal for flit 6 from input 1.0 to output 12.0.
8 | network_0/router_level2_5 | Buffering flit 6 at output 12.
8 | network_0/router_level2_5 | Completed crossbar traversal for flit 10 from input 2.0 to output 11.0.
8 | network_0/router_level2_5 | Buffering flit 10 at output 11.
8 | network_0/router_level2_6 | Beginning crossbar traversal for flit 2 from input 0.0 to output 14.0.
8 | network_0/router_level2_6 | Beginning crossbar traversal for flit 3 from input 1.0 to output 13.0.
8 | network_0/router_level2_6 | Completed crossbar traversal for flit 2 from input 0.0 to output 14.0.
8 | network_0/router_level2_6 | Buffering flit 2 at output 14.
8 | network_0/router_level2_6 | Completed crossbar traversal for flit 3 from input 1.0 to output 13.0.
8 | network_0/router_level2_6 | Buffering flit 3 at output 13.
8 | network_0/router_level2_0 | Sending flit 8 to channel at output 12.
8 | network_0/router_level2_2 | Sending flit 9 to channel at output 8.
8 | network_0/router_level2_3 | Sending flit 4 to channel at output 10.
8 | network_0/router_level2_4 | Sending flit 5 to channel at output 10.
8 | network_0/router_level2_5 | Sending flit 10 to channel at output 11.
8 | network_0/router_level2_5 | Sending flit 6 to channel at output 12.
8 | network_0/router_level2_5 | Sending flit 1 to channel at output 15.
8 | network_0/router_level2_6 | Sending flit 3 to channel at output 13.
8 | network_0/router_level2_6 | Sending flit 2 to channel at output 14.
9 | network_0/network_0_fchan_12292 | Beginning channel traversal for flit 8 with delay 1.
9 | network_0/network_0_fchan_12304 | Beginning channel traversal for flit 9 with delay 1.
9 | network_0/network_0_fchan_12314 | Beginning channel traversal for flit 4 with delay 1.
9 | network_0/network_0_fchan_12322 | Beginning channel traversal for flit 5 with delay 1.
9 | network_0/network_0_fchan_12331 | Beginning channel traversal for flit 10 with delay 1.
9 | network_0/network_0_fchan_12332 | Beginning channel traversal for flit 6 with delay 1.
9 | network_0/network_0_fchan_12335 | Beginning channel traversal for flit 1 with delay 1.
9 | network_0/network_0_fchan_12341 | Beginning channel traversal for flit 3 with delay 1.
9 | network_0/network_0_fchan_12342 | Beginning channel traversal for flit 2 with delay 1.
9 | network_0/router_level2_3 | Beginning crossbar traversal for flit 7 from input 1.0 to output 9.0.
9 | network_0/router_level2_3 | Completed crossbar traversal for flit 7 from input 1.0 to output 9.0.
9 | network_0/router_level2_3 | Buffering flit 7 at output 9.
9 | network_0/network_0_fchan_12292 | Completed channel traversal for flit 8.
9 | network_0/network_0_fchan_12304 | Completed channel traversal for flit 9.
9 | network_0/network_0_fchan_12314 | Completed channel traversal for flit 4.
9 | network_0/network_0_fchan_12322 | Completed channel traversal for flit 5.
9 | network_0/network_0_fchan_12331 | Completed channel traversal for flit 10.
9 | network_0/network_0_fchan_12332 | Completed channel traversal for flit 6.
9 | network_0/network_0_fchan_12335 | Completed channel traversal for flit 1.
9 | network_0/network_0_fchan_12341 | Completed channel traversal for flit 3.
9 | network_0/network_0_fchan_12342 | Completed channel traversal for flit 2.
9 | network_0/router_level2_3 | Sending flit 7 to channel at output 9.
10 | network_0/network_0_fchan_12313 | Beginning channel traversal for flit 7 with delay 1.
10 | network_0/router_level1_2 | Received flit 9 from channel at input 0.
10 | network_0/router_level1_19 | Received flit 4 from channel at input 0.
10 | network_0/router_level1_20 | Received flit 5 from channel at input 0.
10 | network_0/router_level1_29 | Received flit 10 from channel at input 0.
10 | network_0/router_level1_32 | Received flit 8 from channel at input 0.
10 | network_0/router_level1_37 | Received flit 6 from channel at input 0.
10 | network_0/router_level1_46 | Received flit 3 from channel at input 0.
10 | network_0/router_level1_54 | Received flit 2 from channel at input 0.
10 | network_0/router_level1_61 | Received flit 1 from channel at input 0.
10 | network_0/router_level1_2 | Adding flit 9 to VC 0 at input 0 (state: idle, empty).
10 | network_0/router_level1_2 | Using precomputed lookahead routing information for VC 0 at input 0 (front: 9).
10 | network_0/router_level1_2/buf_0/vc_0 | Changing state from idle to vc_alloc.
10 | network_0/router_level1_2 | Beginning VC allocation for VC 0 at input 0 (front: 9).
10 | network_0/router_level1_2 |   Requesting VC 0 at output 10 (in_pri: 0, out_pri: 0).
10 | network_0/router_level1_2 |   Requesting VC 1 at output 10 (in_pri: 0, out_pri: 0).
10 | network_0/router_level1_2 |   Requesting VC 2 at output 10 (in_pri: 0, out_pri: 0).
10 | network_0/router_level1_2 |   Requesting VC 3 at output 10 (in_pri: 0, out_pri: 0).
10 | network_0/router_level1_2/vc_allocator | Input requests = [ 0 -> [ 40@0 41@0 42@0 43@0 ]  24 -> [ 32@0 33@0 34@0 35@0 ]  ], output requests = [ 32 -> [ 24@0 ]  33 -> [ 24@0 ]  34 -> [ 24@0 ]  35 -> [ 24@0 ]  40 -> [ 0@0 ]  41 -> [ 0@0 ]  42 -> [ 0@0 ]  43 -> [ 0@0 ]  ].
10 | network_0/router_level1_2/vc_allocator | Input grants = [ 0 -> 40  24 -> 32  ], output grants = [ 32 -> 24  40 -> 0  ].
10 | network_0/router_level1_2 | Assigning VC 0 at output 10 to VC 0 at input 0.
10 | network_0/router_level1_2 | Completed VC allocation for VC 0 at input 0 (front: 9).
10 | network_0/router_level1_2 |   Acquiring assigned VC 0 at output 10.
10 | network_0/router_level1_2/buf_0/vc_0 | Changing state from vc_alloc to active.
10 | network_0/router_level1_19 | Adding flit 4 to VC 0 at input 0 (state: idle, empty).
10 | network_0/router_level1_19 | Using precomputed lookahead routing information for VC 0 at input 0 (front: 4).
10 | network_0/router_level1_19/buf_0/vc_0 | Changing state from idle to vc_alloc.
10 | network_0/router_level1_19 | Beginning VC allocation for VC 0 at input 0 (front: 4).
10 | network_0/router_level1_19 |   Requesting VC 0 at output 9 (in_pri: 0, out_pri: 0).
10 | network_0/router_level1_19 |   Requesting VC 1 at output 9 (in_pri: 0, out_pri: 0).
10 | network_0/router_level1_19 |   Requesting VC 2 at output 9 (in_pri: 0, out_pri: 0).
10 | network_0/router_level1_19 |   Requesting VC 3 at output 9 (in_pri: 0, out_pri: 0).
10 | network_0/router_level1_19/vc_allocator | Input requests = [ 0 -> [ 36@0 37@0 38@0 39@0 ]  4 -> [ 44@0 45@0 46@0 47@0 ]  8 -> [ 36@0 37@0 38@0 39@0 ]  24 -> [ 36@0 37@0 38@0 39@0 ]  ], output requests = [ 36 -> [ 0@0 8@0 24@0 ]  37 -> [ 0@0 8@0 24@0 ]  38 -> [ 0@0 8@0 24@0 ]  39 -> [ 0@0 8@0 24@0 ]  44 -> [ 4@0 ]  45 -> [ 4@0 ]  46 -> [ 4@0 ]  47 -> [ 4@0 ]  ].
10 | network_0/router_level1_19/vc_allocator | Input grants = [ 0 -> 36  4 -> 44  ], output grants = [ 36 -> 0  44 -> 4  ].
10 | network_0/router_level1_19 | Assigning VC 0 at output 9 to VC 0 at input 0.
10 | network_0/router_level1_19 | Completed VC allocation for VC 0 at input 0 (front: 4).
10 | network_0/router_level1_19 |   Acquiring assigned VC 0 at output 9.
10 | network_0/router_level1_19/buf_0/vc_0 | Changing state from vc_alloc to active.
10 | network_0/router_level1_20 | Adding flit 5 to VC 0 at input 0 (state: idle, empty).
10 | network_0/router_level1_20 | Using precomputed lookahead routing information for VC 0 at input 0 (front: 5).
10 | network_0/router_level1_20/buf_0/vc_0 | Changing state from idle to vc_alloc.
10 | network_0/router_level1_20 | Beginning VC allocation for VC 0 at input 0 (front: 5).
10 | network_0/router_level1_20 |   Requesting VC 0 at output 10 (in_pri: 0, out_pri: 0).
10 | network_0/router_level1_20 |   Requesting VC 1 at output 10 (in_pri: 0, out_pri: 0).
10 | network_0/router_level1_20 |   Requesting VC 2 at output 10 (in_pri: 0, out_pri: 0).
10 | network_0/router_level1_20 |   Requesting VC 3 at output 10 (in_pri: 0, out_pri: 0).
10 | network_0/router_level1_20/vc_allocator | Input requests = [ 0 -> [ 40@0 41@0 42@0 43@0 ]  20 -> [ 36@0 37@0 38@0 39@0 ]  ], output requests = [ 36 -> [ 20@0 ]  37 -> [ 20@0 ]  38 -> [ 20@0 ]  39 -> [ 20@0 ]  40 -> [ 0@0 ]  41 -> [ 0@0 ]  42 -> [ 0@0 ]  43 -> [ 0@0 ]  ].
10 | network_0/router_level1_20/vc_allocator | Input grants = [ 0 -> 40  20 -> 36  ], output grants = [ 36 -> 20  40 -> 0  ].
10 | network_0/router_level1_20 | Assigning VC 0 at output 10 to VC 0 at input 0.
10 | network_0/router_level1_20 | Completed VC allocation for VC 0 at input 0 (front: 5).
10 | network_0/router_level1_20 |   Acquiring assigned VC 0 at output 10.
10 | network_0/router_level1_20/buf_0/vc_0 | Changing state from vc_alloc to active.
10 | network_0/router_level1_29 | Adding flit 10 to VC 0 at input 0 (state: idle, empty).
10 | network_0/router_level1_29 | Using precomputed lookahead routing information for VC 0 at input 0 (front: 10).
10 | network_0/router_level1_29/buf_0/vc_0 | Changing state from idle to vc_alloc.
10 | network_0/router_level1_29 | Beginning VC allocation for VC 0 at input 0 (front: 10).
10 | network_0/router_level1_29 |   Requesting VC 0 at output 11 (in_pri: 0, out_pri: 0).
10 | network_0/router_level1_29 |   Requesting VC 1 at output 11 (in_pri: 0, out_pri: 0).
10 | network_0/router_level1_29 |   Requesting VC 2 at output 11 (in_pri: 0, out_pri: 0).
10 | network_0/router_level1_29 |   Requesting VC 3 at output 11 (in_pri: 0, out_pri: 0).
10 | network_0/router_level1_29/vc_allocator | Input requests = [ 0 -> [ 44@0 45@0 46@0 47@0 ]  12 -> [ 36@0 37@0 38@0 39@0 ]  16 -> [ 36@0 37@0 38@0 39@0 ]  20 -> [ 40@0 41@0 42@0 43@0 ]  28 -> [ 40@0 41@0 42@0 43@0 ]  ], output requests = [ 36 -> [ 12@0 16@0 ]  37 -> [ 12@0 16@0 ]  38 -> [ 12@0 16@0 ]  39 -> [ 12@0 16@0 ]  40 -> [ 20@0 28@0 ]  41 -> [ 20@0 28@0 ]  42 -> [ 20@0 28@0 ]  43 -> [ 20@0 28@0 ]  44 -> [ 0@0 ]  45 -> [ 0@0 ]  46 -> [ 0@0 ]  47 -> [ 0@0 ]  ].
10 | network_0/router_level1_29/vc_allocator | Input grants = [ 0 -> 44  12 -> 36  20 -> 40  ], output grants = [ 36 -> 12  40 -> 20  44 -> 0  ].
10 | network_0/router_level1_29 | Assigning VC 0 at output 11 to VC 0 at input 0.
10 | network_0/router_level1_29 | Completed VC allocation for VC 0 at input 0 (front: 10).
10 | network_0/router_level1_29 |   Acquiring assigned VC 0 at output 11.
10 | network_0/router_level1_29/buf_0/vc_0 | Changing state from vc_alloc to active.
10 | network_0/router_level1_32 | Adding flit 8 to VC 0 at input 0 (state: idle, empty).
10 | network_0/router_level1_32 | Using precomputed lookahead routing information for VC 0 at input 0 (front: 8).
10 | network_0/router_level1_32/buf_0/vc_0 | Changing state from idle to vc_alloc.
10 | network_0/router_level1_32 | Beginning VC allocation for VC 0 at input 0 (front: 8).
10 | network_0/router_level1_32 |   Requesting VC 0 at output 10 (in_pri: 0, out_pri: 0).
10 | network_0/router_level1_32 |   Requesting VC 1 at output 10 (in_pri: 0, out_pri: 0).
10 | network_0/router_level1_32 |   Requesting VC 2 at output 10 (in_pri: 0, out_pri: 0).
10 | network_0/router_level1_32 |   Requesting VC 3 at output 10 (in_pri: 0, out_pri: 0).
10 | network_0/router_level1_32/vc_allocator | Input requests = [ 0 -> [ 40@0 41@0 42@0 43@0 ]  4 -> [ 44@0 45@0 46@0 47@0 ]  12 -> [ 40@0 41@0 42@0 43@0 ]  16 -> [ 4@0 5@0 6@0 7@0 ]  28 -> [ 32@0 33@0 34@0 35@0 ]  ], output requests = [ 4 -> [ 16@0 ]  5 -> [ 16@0 ]  6 -> [ 16@0 ]  7 -> [ 16@0 ]  32 -> [ 28@0 ]  33 -> [ 28@0 ]  34 -> [ 28@0 ]  35 -> [ 28@0 ]  40 -> [ 0@0 12@0 ]  41 -> [ 0@0 12@0 ]  42 -> [ 0@0 12@0 ]  43 -> [ 0@0 12@0 ]  44 -> [ 4@0 ]  45 -> [ 4@0 ]  46 -> [ 4@0 ]  47 -> [ 4@0 ]  ].
10 | network_0/router_level1_32/vc_allocator | Input grants = [ 0 -> 40  4 -> 44  16 -> 4  28 -> 32  ], output grants = [ 4 -> 16  32 -> 28  40 -> 0  44 -> 4  ].
10 | network_0/router_level1_32 | Assigning VC 0 at output 10 to VC 0 at input 0.
10 | network_0/router_level1_32 | Completed VC allocation for VC 0 at input 0 (front: 8).
10 | network_0/router_level1_32 |   Acquiring assigned VC 0 at output 10.
10 | network_0/router_level1_32/buf_0/vc_0 | Changing state from vc_alloc to active.
10 | network_0/router_level1_37 | Adding flit 6 to VC 0 at input 0 (state: idle, empty).
10 | network_0/router_level1_37 | Using precomputed lookahead routing information for VC 0 at input 0 (front: 6).
10 | network_0/router_level1_37/buf_0/vc_0 | Changing state from idle to vc_alloc.
10 | network_0/router_level1_37 | Beginning VC allocation for VC 0 at input 0 (front: 6).
10 | network_0/router_level1_37 |   Requesting VC 0 at output 11 (in_pri: 0, out_pri: 0).
10 | network_0/router_level1_37 |   Requesting VC 1 at output 11 (in_pri: 0, out_pri: 0).
10 | network_0/router_level1_37 |   Requesting VC 2 at output 11 (in_pri: 0, out_pri: 0).
10 | network_0/router_level1_37 |   Requesting VC 3 at output 11 (in_pri: 0, out_pri: 0).
10 | network_0/router_level1_37/vc_allocator | Input requests = [ 0 -> [ 44@0 45@0 46@0 47@0 ]  4 -> [ 40@0 41@0 42@0 43@0 ]  28 -> [ 36@0 37@0 38@0 39@0 ]  ], output requests = [ 36 -> [ 28@0 ]  37 -> [ 28@0 ]  38 -> [ 28@0 ]  39 -> [ 28@0 ]  40 -> [ 4@0 ]  41 -> [ 4@0 ]  42 -> [ 4@0 ]  43 -> [ 4@0 ]  44 -> [ 0@0 ]  45 -> [ 0@0 ]  46 -> [ 0@0 ]  47 -> [ 0@0 ]  ].
10 | network_0/router_level1_37/vc_allocator | Input grants = [ 0 -> 44  4 -> 40  28 -> 36  ], output grants = [ 36 -> 28  40 -> 4  44 -> 0  ].
10 | network_0/router_level1_37 | Assigning VC 0 at output 11 to VC 0 at input 0.
10 | network_0/router_level1_37 | Completed VC allocation for VC 0 at input 0 (front: 6).
10 | network_0/router_level1_37 |   Acquiring assigned VC 0 at output 11.
10 | network_0/router_level1_37/buf_0/vc_0 | Changing state from vc_alloc to active.
10 | network_0/router_level1_46 | Adding flit 3 to VC 0 at input 0 (state: idle, empty).
10 | network_0/router_level1_46 | Using precomputed lookahead routing information for VC 0 at input 0 (front: 3).
10 | network_0/router_level1_46/buf_0/vc_0 | Changing state from idle to vc_alloc.
10 | network_0/router_level1_46 | Beginning VC allocation for VC 0 at input 0 (front: 3).
10 | network_0/router_level1_46 |   Requesting VC 0 at output 10 (in_pri: 0, out_pri: 0).
10 | network_0/router_level1_46 |   Requesting VC 1 at output 10 (in_pri: 0, out_pri: 0).
10 | network_0/router_level1_46 |   Requesting VC 2 at output 10 (in_pri: 0, out_pri: 0).
10 | network_0/router_level1_46 |   Requesting VC 3 at output 10 (in_pri: 0, out_pri: 0).
10 | network_0/router_level1_46/vc_allocator | Input requests = [ 0 -> [ 40@0 41@0 42@0 43@0 ]  8 -> [ 44@0 45@0 46@0 47@0 ]  20 -> [ 40@0 41@0 42@0 43@0 ]  24 -> [ 36@0 37@0 38@0 39@0 ]  28 -> [ 4@0 5@0 6@0 7@0 ]  ], output requests = [ 4 -> [ 28@0 ]  5 -> [ 28@0 ]  6 -> [ 28@0 ]  7 -> [ 28@0 ]  36 -> [ 24@0 ]  37 -> [ 24@0 ]  38 -> [ 24@0 ]  39 -> [ 24@0 ]  40 -> [ 0@0 20@0 ]  41 -> [ 0@0 20@0 ]  42 -> [ 0@0 20@0 ]  43 -> [ 0@0 20@0 ]  44 -> [ 8@0 ]  45 -> [ 8@0 ]  46 -> [ 8@0 ]  47 -> [ 8@0 ]  ].
10 | network_0/router_level1_46/vc_allocator | Input grants = [ 0 -> 40  8 -> 44  24 -> 36  28 -> 4  ], output grants = [ 4 -> 28  36 -> 24  40 -> 0  44 -> 8  ].
10 | network_0/router_level1_46 | Assigning VC 0 at output 10 to VC 0 at input 0.
10 | network_0/router_level1_46 | Completed VC allocation for VC 0 at input 0 (front: 3).
10 | network_0/router_level1_46 |   Acquiring assigned VC 0 at output 10.
10 | network_0/router_level1_46/buf_0/vc_0 | Changing state from vc_alloc to active.
10 | network_0/router_level1_54 | Adding flit 2 to VC 0 at input 0 (state: idle, empty).
10 | network_0/router_level1_54 | Using precomputed lookahead routing information for VC 0 at input 0 (front: 2).
10 | network_0/router_level1_54/buf_0/vc_0 | Changing state from idle to vc_alloc.
10 | network_0/router_level1_54 | Beginning VC allocation for VC 0 at input 0 (front: 2).
10 | network_0/router_level1_54 |   Requesting VC 0 at output 5 (in_pri: 0, out_pri: 0).
10 | network_0/router_level1_54 |   Requesting VC 1 at output 5 (in_pri: 0, out_pri: 0).
10 | network_0/router_level1_54 |   Requesting VC 2 at output 5 (in_pri: 0, out_pri: 0).
10 | network_0/router_level1_54 |   Requesting VC 3 at output 5 (in_pri: 0, out_pri: 0).
10 | network_0/router_level1_54/vc_allocator | Input requests = [ 0 -> [ 20@0 21@0 22@0 23@0 ]  12 -> [ 36@0 37@0 38@0 39@0 ]  16 -> [ 32@0 33@0 34@0 35@0 ]  28 -> [ 40@0 41@0 42@0 43@0 ]  ], output requests = [ 20 -> [ 0@0 ]  21 -> [ 0@0 ]  22 -> [ 0@0 ]  23 -> [ 0@0 ]  32 -> [ 16@0 ]  33 -> [ 16@0 ]  34 -> [ 16@0 ]  35 -> [ 16@0 ]  36 -> [ 12@0 ]  37 -> [ 12@0 ]  38 -> [ 12@0 ]  39 -> [ 12@0 ]  40 -> [ 28@0 ]  41 -> [ 28@0 ]  42 -> [ 28@0 ]  43 -> [ 28@0 ]  ].
10 | network_0/router_level1_54/vc_allocator | Input grants = [ 0 -> 20  12 -> 36  16 -> 32  28 -> 40  ], output grants = [ 20 -> 0  32 -> 16  36 -> 12  40 -> 28  ].
10 | network_0/router_level1_54 | Assigning VC 0 at output 5 to VC 0 at input 0.
10 | network_0/router_level1_54 | Completed VC allocation for VC 0 at input 0 (front: 2).
10 | network_0/router_level1_54 |   Acquiring assigned VC 0 at output 5.
10 | network_0/router_level1_54/buf_0/vc_0 | Changing state from vc_alloc to active.
10 | network_0/router_level1_61 | Adding flit 1 to VC 0 at input 0 (state: idle, empty).
10 | network_0/router_level1_61 | Using precomputed lookahead routing information for VC 0 at input 0 (front: 1).
10 | network_0/router_level1_61/buf_0/vc_0 | Changing state from idle to vc_alloc.
10 | network_0/router_level1_61 | Beginning VC allocation for VC 0 at input 0 (front: 1).
10 | network_0/router_level1_61 |   Requesting VC 0 at output 4 (in_pri: 0, out_pri: 0).
10 | network_0/router_level1_61 |   Requesting VC 1 at output 4 (in_pri: 0, out_pri: 0).
10 | network_0/router_level1_61 |   Requesting VC 2 at output 4 (in_pri: 0, out_pri: 0).
10 | network_0/router_level1_61 |   Requesting VC 3 at output 4 (in_pri: 0, out_pri: 0).
10 | network_0/router_level1_61/vc_allocator | Input requests = [ 0 -> [ 16@0 17@0 18@0 19@0 ]  24 -> [ 36@0 37@0 38@0 39@0 ]  ], output requests = [ 16 -> [ 0@0 ]  17 -> [ 0@0 ]  18 -> [ 0@0 ]  19 -> [ 0@0 ]  36 -> [ 24@0 ]  37 -> [ 24@0 ]  38 -> [ 24@0 ]  39 -> [ 24@0 ]  ].
10 | network_0/router_level1_61/vc_allocator | Input grants = [ 0 -> 16  24 -> 36  ], output grants = [ 16 -> 0  36 -> 24  ].
10 | network_0/router_level1_61 | Assigning VC 0 at output 4 to VC 0 at input 0.
10 | network_0/router_level1_61 | Completed VC allocation for VC 0 at input 0 (front: 1).
10 | network_0/router_level1_61 |   Acquiring assigned VC 0 at output 4.
10 | network_0/router_level1_61/buf_0/vc_0 | Changing state from vc_alloc to active.
10 | network_0/network_0_fchan_12313 | Completed channel traversal for flit 7.
11 | network_0/router_level1_11 | Received flit 7 from channel at input 0.
11 | network_0/router_level1_2 | Beginning switch allocation for VC 0 at input 0 (front: 9).
11 | network_0/router_level1_2 |   Requesting output 10.0 (non-spec, pri: 0).
11 | network_0/router_level1_2/sw_allocator | Input requests = [ 0 -> [ 10@0 ]  6 -> [ 8@0 ]  ], output requests = [ 8 -> [ 6@0 ]  10 -> [ 0@0 ]  ].
11 | network_0/router_level1_2/sw_allocator | Input grants = [ 0 -> 10  6 -> 8  ], output grants = [ 8 -> 6  10 -> 0  ].
11 | network_0/router_level1_2 | Assigning output 10.0 to VC 0 at input 0.0.
11 | network_0/router_level1_2 | Completed switch allocation for VC 0 at input 0 (front: 9).
11 | network_0/router_level1_2 |   Scheduling switch connection from input 0.0 to output 10.0.
11 | network_0/router_level1_2 | Updating lookahead routing information for flit 9.
11 | network_0/router_level1_11 | Adding flit 7 to VC 1 at input 0 (state: idle, empty).
11 | network_0/router_level1_11 | Using precomputed lookahead routing information for VC 1 at input 0 (front: 7).
11 | network_0/router_level1_11/buf_0/vc_1 | Changing state from idle to vc_alloc.
11 | network_0/router_level1_11 | Beginning VC allocation for VC 1 at input 0 (front: 7).
11 | network_0/router_level1_11 |   VC 0 at output 8 is in use by VC 0 at input 1 (front flit: 73).
11 | network_0/router_level1_11 |   Requesting VC 1 at output 8 (in_pri: 0, out_pri: 0).
11 | network_0/router_level1_11 |   Requesting VC 2 at output 8 (in_pri: 0, out_pri: 0).
11 | network_0/router_level1_11 |   Requesting VC 3 at output 8 (in_pri: 0, out_pri: 0).
11 | network_0/router_level1_11/vc_allocator | Input requests = [ 1 -> [ 33@0 34@0 35@0 ]  12 -> [ 41@0 42@0 43@0 ]  17 -> [ 36@0 37@0 38@0 39@0 ]  24 -> [ 33@0 34@0 35@0 ]  28 -> [ 33@0 34@0 35@0 ]  ], output requests = [ 33 -> [ 1@0 24@0 28@0 ]  34 -> [ 1@0 24@0 28@0 ]  35 -> [ 1@0 24@0 28@0 ]  36 -> [ 17@0 ]  37 -> [ 17@0 ]  38 -> [ 17@0 ]  39 -> [ 17@0 ]  41 -> [ 12@0 ]  42 -> [ 12@0 ]  43 -> [ 12@0 ]  ].
11 | network_0/router_level1_11/vc_allocator | Input grants = [ 1 -> 33  12 -> 41  17 -> 36  ], output grants = [ 33 -> 1  36 -> 17  41 -> 12  ].
11 | network_0/router_level1_11 | Assigning VC 1 at output 8 to VC 1 at input 0.
11 | network_0/router_level1_11 | Completed VC allocation for VC 1 at input 0 (front: 7).
11 | network_0/router_level1_11 |   Acquiring assigned VC 1 at output 8.
11 | network_0/router_level1_11/buf_0/vc_1 | Changing state from vc_alloc to active.
11 | network_0/router_level1_19 | Beginning switch allocation for VC 0 at input 0 (front: 4).
11 | network_0/router_level1_19 |   Requesting output 9.0 (non-spec, pri: 0).
11 | network_0/router_level1_19/sw_allocator | Input requests = [ 0 -> [ 9@0 ]  1 -> [ 11@0 ]  ], output requests = [ 9 -> [ 0@0 ]  11 -> [ 1@0 ]  ].
[...]
27 | network_0/router_level3_112/vc_allocator | Input grants = [ 3 -> 41  10 -> 32  15 -> 36  20 -> 44  31 -> 34  33 -> 0  36 -> 29  45 -> 20  ], output grants = [ 0 -> 33  20 -> 45  29 -> 36  32 -> 10  34 -> 31  36 -> 15  41 -> 3  44 -> 20  ].
27 | network_0/router_level3_112 | Assigning VC 0 at output 0 to VC 1 at input 8.
27 | network_0/router_level3_112 | Completed VC allocation for VC 1 at input 8 (front: 8).
27 | network_0/router_level3_112 |   Acquiring assigned VC 0 at output 0.
27 | network_0/router_level3_112/buf_8/vc_1 | Changing state from vc_alloc to active.
27 | network_0/router_level3_120 | Beginning switch allocation for VC 0 at input 10 (front: 9).
27 | network_0/router_level3_120 |   Requesting output 0.0 (non-spec, pri: 0).
27 | network_0/router_level3_120/sw_allocator | Input requests = [ 0 -> [ 8@0 12@0 ]  1 -> [ 9@0 14@0 ]  2 -> [ 8@0 11@0 ]  3 -> [ 13@0 ]  4 -> [ 9@0 12@0 ]  5 -> [ 10@0 13@0 ]  7 -> [ 10@0 11@0 ]  10 -> [ 0@0 ]  ], output requests = [ 0 -> [ 10@0 ]  8 -> [ 0@0 2@0 ]  9 -> [ 1@0 4@0 ]  10 -> [ 5@0 7@0 ]  11 -> [ 2@0 7@0 ]  12 -> [ 0@0 4@0 ]  13 -> [ 3@0 5@0 ]  14 -> [ 1@0 ]  ].
27 | network_0/router_level3_120/sw_allocator | Input grants = [ 0 -> 12  1 -> 14  2 -> 8  3 -> 13  4 -> 9  7 -> 10  10 -> 0  ], output grants = [ 0 -> 10  8 -> 2  9 -> 4  10 -> 7  12 -> 0  13 -> 3  14 -> 1  ].
27 | network_0/router_level3_120 | Assigning output 0.0 to VC 0 at input 10.0.
27 | network_0/router_level3_120 | Completed switch allocation for VC 0 at input 10 (front: 9).
27 | network_0/router_level3_120 |   Scheduling switch connection from input 10.0 to output 0.0.
27 | network_0/network_0_fchan_17512 | Completed channel traversal for flit 10.
28 | network_0/router_level3_136 | Received flit 10 from channel at input 13.
28 | network_0/router_level3_64 | Beginning switch allocation for VC 0 at input 14 (front: 3).
28 | network_0/router_level3_64 |   Requesting output 0.0 (non-spec, pri: 0).
28 | network_0/router_level3_64/sw_allocator | Input requests = [ 0 -> [ 12@0 ]  1 -> [ 8@0 12@0 ]  4 -> [ 8@0 13@0 ]  5 -> [ 14@0 15@0 ]  6 -> [ 8@0 15@0 ]  7 -> [ 10@0 12@0 ]  12 -> [ 1@0 ]  14 -> [ 0@0 ]  ], output requests = [ 0 -> [ 14@0 ]  1 -> [ 12@0 ]  8 -> [ 1@0 4@0 6@0 ]  10 -> [ 7@0 ]  12 -> [ 0@0 1@0 7@0 ]  13 -> [ 4@0 ]  14 -> [ 5@0 ]  15 -> [ 5@0 6@0 ]  ].
28 | network_0/router_level3_64/sw_allocator | Input grants = [ 0 -> 12  4 -> 8  5 -> 15  7 -> 10  12 -> 1  14 -> 0  ], output grants = [ 0 -> 14  1 -> 12  8 -> 4  10 -> 7  12 -> 0  15 -> 5  ].
28 | network_0/router_level3_64 | Assigning output 0.0 to VC 0 at input 14.0.
28 | network_0/router_level3_64 | Completed switch allocation for VC 0 at input 14 (front: 3).
28 | network_0/router_level3_64 |   Scheduling switch connection from input 14.0 to output 0.0.
28 | network_0/router_level3_72 | Beginning crossbar traversal for flit 4 from input 11.0 to output 0.0.
28 | network_0/router_level3_72 | Completed crossbar traversal for flit 4 from input 11.0 to output 0.0.
28 | network_0/router_level3_72 | Buffering flit 4 at output 0.
28 | network_0/router_level3_88 | Beginning switch allocation for VC 0 at input 12 (front: 5).
28 | network_0/router_level3_88 |   Requesting output 0.0 (non-spec, pri: 0).
28 | network_0/router_level3_88/sw_allocator | Input requests = [ 0 -> [ 13@0 ]  1 -> [ 14@0 ]  3 -> [ 11@0 15@0 ]  4 -> [ 13@0 14@0 ]  5 -> [ 11@0 12@0 14@0 ]  6 -> [ 13@0 ]  7 -> [ 9@0 ]  11 -> [ 2@0 ]  12 -> [ 0@0 ]  13 -> [ 1@0 ]  ], output requests = [ 0 -> [ 12@0 ]  1 -> [ 13@0 ]  2 -> [ 11@0 ]  9 -> [ 7@0 ]  11 -> [ 3@0 5@0 ]  12 -> [ 5@0 ]  13 -> [ 0@0 4@0 6@0 ]  14 -> [ 1@0 4@0 5@0 ]  15 -> [ 3@0 ]  ].
28 | network_0/router_level3_88/sw_allocator | Input grants = [ 1 -> 14  3 -> 15  4 -> 13  5 -> 11  7 -> 9  11 -> 2  12 -> 0  13 -> 1  ], output grants = [ 0 -> 12  1 -> 13  2 -> 11  9 -> 7  11 -> 5  13 -> 4  14 -> 1  15 -> 3  ].
28 | network_0/router_level3_88 | Assigning output 0.0 to VC 0 at input 12.0.
28 | network_0/router_level3_88 | Completed switch allocation for VC 0 at input 12 (front: 5).
28 | network_0/router_level3_88 |   Scheduling switch connection from input 12.0 to output 0.0.
28 | network_0/router_level3_96 | Beginning switch allocation for VC 1 at input 13 (front: 6).
28 | network_0/router_level3_96 |   Requesting output 0.0 (non-spec, pri: 0).
28 | network_0/router_level3_96/sw_allocator | Input requests = [ 0 -> [ 9@0 12@0 ]  1 -> [ 12@0 15@0 ]  2 -> [ 8@0 ]  4 -> [ 8@0 10@0 ]  5 -> [ 13@0 ]  6 -> [ 11@0 12@0 ]  7 -> [ 10@0 11@0 ]  8 -> [ 1@0 ]  12 -> [ 4@0 ]  13 -> [ 0@0 ]  ], output requests = [ 0 -> [ 13@0 ]  1 -> [ 8@0 ]  4 -> [ 12@0 ]  8 -> [ 2@0 4@0 ]  9 -> [ 0@0 ]  10 -> [ 4@0 7@0 ]  11 -> [ 6@0 7@0 ]  12 -> [ 0@0 1@0 6@0 ]  13 -> [ 5@0 ]  15 -> [ 1@0 ]  ].
28 | network_0/router_level3_96/sw_allocator | Input grants = [ 0 -> 9  1 -> 15  2 -> 8  5 -> 13  6 -> 11  7 -> 10  8 -> 1  12 -> 4  13 -> 0  ], output grants = [ 0 -> 13  1 -> 8  4 -> 12  8 -> 2  9 -> 0  10 -> 7  11 -> 6  13 -> 5  15 -> 1  ].
28 | network_0/router_level3_96 | Assigning output 0.0 to VC 1 at input 13.0.
28 | network_0/router_level3_96 | Completed switch allocation for VC 1 at input 13 (front: 6).
28 | network_0/router_level3_96 |   Scheduling switch connection from input 13.0 to output 0.0.
28 | network_0/router_level3_104 | Beginning switch allocation for VC 0 at input 11 (front: 7).
28 | network_0/router_level3_104 |   Requesting output 0.0 (non-spec, pri: 0).
28 | network_0/router_level3_104/sw_allocator | Input requests = [ 0 -> [ 9@0 10@0 14@0 ]  1 -> [ 8@0 11@0 ]  2 -> [ 12@0 ]  3 -> [ 8@0 ]  4 -> [ 13@0 ]  5 -> [ 8@0 14@0 ]  6 -> [ 12@0 13@0 ]  7 -> [ 13@0 ]  11 -> [ 0@0 ]  12 -> [ 5@0 ]  14 -> [ 1@0 ]  ], output requests = [ 0 -> [ 11@0 ]  1 -> [ 14@0 ]  5 -> [ 12@0 ]  8 -> [ 1@0 3@0 5@0 ]  9 -> [ 0@0 ]  10 -> [ 0@0 ]  11 -> [ 1@0 ]  12 -> [ 2@0 6@0 ]  13 -> [ 4@0 6@0 7@0 ]  14 -> [ 0@0 5@0 ]  ].
28 | network_0/router_level3_104/sw_allocator | Input grants = [ 1 -> 8  2 -> 12  5 -> 14  7 -> 13  11 -> 0  12 -> 5  14 -> 1  ], output grants = [ 0 -> 11  1 -> 14  5 -> 12  8 -> 1  12 -> 2  13 -> 7  14 -> 5  ].
28 | network_0/router_level3_104 | Assigning output 0.0 to VC 0 at input 11.0.
28 | network_0/router_level3_104 | Completed switch allocation for VC 0 at input 11 (front: 7).
28 | network_0/router_level3_104 |   Scheduling switch connection from input 11.0 to output 0.0.
28 | network_0/router_level3_112 | Beginning switch allocation for VC 1 at input 8 (front: 8).
28 | network_0/router_level3_112 |   Requesting output 0.0 (non-spec, pri: 0).
28 | network_0/router_level3_112/sw_allocator | Input requests = [ 0 -> [ 10@0 14@0 ]  2 -> [ 8@0 ]  3 -> [ 9@0 ]  4 -> [ 10@0 ]  5 -> [ 11@0 ]  7 -> [ 8@0 10@0 ]  8 -> [ 0@0 ]  9 -> [ 7@0 ]  11 -> [ 5@0 ]  ], output requests = [ 0 -> [ 8@0 ]  5 -> [ 11@0 ]  7 -> [ 9@0 ]  8 -> [ 2@0 7@0 ]  9 -> [ 3@0 ]  10 -> [ 0@0 4@0 7@0 ]  11 -> [ 5@0 ]  14 -> [ 0@0 ]  ].
28 | network_0/router_level3_112/sw_allocator | Input grants = [ 0 -> 14  2 -> 8  3 -> 9  5 -> 11  7 -> 10  8 -> 0  9 -> 7  11 -> 5  ], output grants = [ 0 -> 8  5 -> 11  7 -> 9  8 -> 2  9 -> 3  10 -> 7  11 -> 5  14 -> 0  ].
28 | network_0/router_level3_112 | Assigning output 0.0 to VC 1 at input 8.0.
28 | network_0/router_level3_112 | Completed switch allocation for VC 1 at input 8 (front: 8).
28 | network_0/router_level3_112 |   Scheduling switch connection from input 8.0 to output 0.0.
28 | network_0/router_level3_120 | Beginning crossbar traversal for flit 9 from input 10.0 to output 0.0.
28 | network_0/router_level3_120 | Completed crossbar traversal for flit 9 from input 10.0 to output 0.0.
28 | network_0/router_level3_120 | Buffering flit 9 at output 0.
28 | network_0/router_level3_136 | Adding flit 10 to VC 0 at input 13 (state: idle, empty).
28 | network_0/router_level3_136 | Using precomputed lookahead routing information for VC 0 at input 13 (front: 10).
28 | network_0/router_level3_136/buf_13/vc_0 | Changing state from idle to vc_alloc.
28 | network_0/router_level3_136 | Beginning VC allocation for VC 0 at input 13 (front: 10).
28 | network_0/router_level3_136 |   Requesting VC 0 at output 0 (in_pri: 0, out_pri: 0).
28 | network_0/router_level3_136 |   Requesting VC 1 at output 0 (in_pri: 0, out_pri: 0).
28 | network_0/router_level3_136 |   Requesting VC 2 at output 0 (in_pri: 0, out_pri: 0).
28 | network_0/router_level3_136 |   Requesting VC 3 at output 0 (in_pri: 0, out_pri: 0).
28 | network_0/router_level3_136/vc_allocator | Input requests = [ 5 -> [ 32@0 ]  9 -> [ 41@0 42@0 43@0 ]  10 -> [ 50@0 ]  12 -> [ 50@0 ]  13 -> [ 52@0 53@0 54@0 55@0 ]  17 -> [ 58@0 59@0 ]  21 -> [ 52@0 53@0 54@0 55@0 ]  22 -> [ 36@0 37@0 38@0 39@0 ]  25 -> [ 52@0 53@0 54@0 55@0 ]  29 -> [ 58@0 59@0 ]  37 -> [ 29@0 30@0 31@0 ]  40 -> [ 12@0 13@0 14@0 15@0 ]  52 -> [ 0@0 1@0 2@0 3@0 ]  61 -> [ 16@0 17@0 18@0 19@0 ]  ], output requests = [ 0 -> [ 52@0 ]  1 -> [ 52@0 ]  2 -> [ 52@0 ]  3 -> [ 52@0 ]  12 -> [ 40@0 ]  13 -> [ 40@0 ]  14 -> [ 40@0 ]  15 -> [ 40@0 ]  16 -> [ 61@0 ]  17 -> [ 61@0 ]  18 -> [ 61@0 ]  19 -> [ 61@0 ]  29 -> [ 37@0 ]  30 -> [ 37@0 ]  31 -> [ 37@0 ]  32 -> [ 5@0 ]  36 -> [ 22@0 ]  37 -> [ 22@0 ]  38 -> [ 22@0 ]  39 -> [ 22@0 ]  41 -> [ 9@0 ]  42 -> [ 9@0 ]  43 -> [ 9@0 ]  50 -> [ 10@0 12@0 ]  52 -> [ 13@0 21@0 25@0 ]  53 -> [ 13@0 21@0 25@0 ]  54 -> [ 13@0 21@0 25@0 ]  55 -> [ 13@0 21@0 25@0 ]  58 -> [ 17@0 29@0 ]  59 -> [ 17@0 29@0 ]  ].
28 | network_0/router_level3_136/vc_allocator | Input grants = [ 5 -> 32  9 -> 41  10 -> 50  13 -> 52  17 -> 58  22 -> 36  37 -> 29  40 -> 12  52 -> 0  61 -> 16  ], output grants = [ 0 -> 52  12 -> 40  16 -> 61  29 -> 37  32 -> 5  36 -> 22  41 -> 9  50 -> 10  52 -> 13  58 -> 17  ].
28 | network_0/router_level3_136 | Assigning VC 0 at output 0 to VC 0 at input 13.
28 | network_0/router_level3_136 | Completed VC allocation for VC 0 at input 13 (front: 10).
28 | network_0/router_level3_136 |   Acquiring assigned VC 0 at output 0.
28 | network_0/router_level3_136/buf_13/vc_0 | Changing state from vc_alloc to active.
28 | network_0/router_level3_72 | Sending flit 4 to channel at output 0.
28 | network_0/router_level3_120 | Sending flit 9 to channel at output 0.
29 | network_0/network_0_fchan_egress576 | Beginning channel traversal for flit 4 with delay 1.
29 | network_0/network_0_fchan_egress960 | Beginning channel traversal for flit 9 with delay 1.
29 | network_0/router_level3_64 | Beginning crossbar traversal for flit 3 from input 14.0 to output 0.0.
29 | network_0/router_level3_64 | Completed crossbar traversal for flit 3 from input 14.0 to output 0.0.
29 | network_0/router_level3_64 | Buffering flit 3 at output 0.
29 | network_0/router_level3_88 | Beginning crossbar traversal for flit 5 from input 12.0 to output 0.0.
29 | network_0/router_level3_88 | Completed crossbar traversal for flit 5 from input 12.0 to output 0.0.
29 | network_0/router_level3_88 | Buffering flit 5 at output 0.
29 | network_0/router_level3_96 | Beginning crossbar traversal for flit 6 from input 13.0 to output 0.0.
29 | network_0/router_level3_96 | Completed crossbar traversal for flit 6 from input 13.0 to output 0.0.
29 | network_0/router_level3_96 | Buffering flit 6 at output 0.
29 | network_0/router_level3_104 | Beginning crossbar traversal for flit 7 from input 11.0 to output 0.0.
29 | network_0/router_level3_104 | Completed crossbar traversal for flit 7 from input 11.0 to output 0.0.
29 | network_0/router_level3_104 | Buffering flit 7 at output 0.
29 | network_0/router_level3_112 | Beginning crossbar traversal for flit 8 from input 8.0 to output 0.0.
29 | network_0/router_level3_112 | Completed crossbar traversal for flit 8 from input 8.0 to output 0.0.
29 | network_0/router_level3_112 | Buffering flit 8 at output 0.
29 | network_0/router_level3_136 | Beginning switch allocation for VC 0 at input 13 (front: 10).
29 | network_0/router_level3_136 |   Requesting output 0.0 (non-spec, pri: 0).
29 | network_0/router_level3_136/sw_allocator | Input requests = [ 0 -> [ 8@0 12@0 ]  1 -> [ 8@0 12@0 ]  2 -> [ 10@0 12@0 14@0 ]  3 -> [ 11@0 13@0 ]  4 -> [ 8@0 14@0 ]  5 -> [ 9@0 10@0 ]  9 -> [ 7@0 ]  10 -> [ 3@0 ]  13 -> [ 0@0 ]  15 -> [ 4@0 ]  ], output requests = [ 0 -> [ 13@0 ]  3 -> [ 10@0 ]  4 -> [ 15@0 ]  7 -> [ 9@0 ]  8 -> [ 0@0 1@0 4@0 ]  9 -> [ 5@0 ]  10 -> [ 2@0 5@0 ]  11 -> [ 3@0 ]  12 -> [ 0@0 1@0 2@0 ]  13 -> [ 3@0 ]  14 -> [ 2@0 4@0 ]  ].
29 | network_0/router_level3_136/sw_allocator | Input grants = [ 0 -> 12  1 -> 8  2 -> 10  3 -> 11  4 -> 14  5 -> 9  9 -> 7  10 -> 3  13 -> 0  15 -> 4  ], output grants = [ 0 -> 13  3 -> 10  4 -> 15  7 -> 9  8 -> 1  9 -> 5  10 -> 2  11 -> 3  12 -> 0  14 -> 4  ].
29 | network_0/router_level3_136 | Assigning output 0.0 to VC 0 at input 13.0.
29 | network_0/router_level3_136 | Completed switch allocation for VC 0 at input 13 (front: 10).
29 | network_0/router_level3_136 |   Scheduling switch connection from input 13.0 to output 0.0.
29 | network_0/network_0_fchan_egress576 | Completed channel traversal for flit 4.
29 | network_0/network_0_fchan_egress960 | Completed channel traversal for flit 9.
29 | network_0/router_level3_64 | Sending flit 3 to channel at output 0.
29 | network_0/router_level3_88 | Sending flit 5 to channel at output 0.
29 | network_0/router_level3_96 | Sending flit 6 to channel at output 0.
29 | network_0/router_level3_104 | Sending flit 7 to channel at output 0.
29 | network_0/router_level3_112 | Sending flit 8 to channel at output 0.
30 | node576 | Ejecting flit 4 (packet 4) from VC 0.
30 | node960 | Ejecting flit 9 (packet 9) from VC 0.
30 | network_0/network_0_fchan_egress512 | Beginning channel traversal for flit 3 with delay 1.
30 | network_0/network_0_fchan_egress704 | Beginning channel traversal for flit 5 with delay 1.
30 | network_0/network_0_fchan_egress768 | Beginning channel traversal for flit 6 with delay 1.
30 | network_0/network_0_fchan_egress832 | Beginning channel traversal for flit 7 with delay 1.
30 | network_0/network_0_fchan_egress896 | Beginning channel traversal for flit 8 with delay 1.
30 | node576 | Injecting credit for VC 0 into subnet 0.
30 | node576 | Retiring flit 4 (packet 4, src = 9, dest = 576, hops = 7, flat = 30).
30 | node576 | Retiring packet 4 (plat = 30, nlat = 30, frag = 0, src = 9, dest = 576).
30 | node960 | Injecting credit for VC 0 into subnet 0.
30 | node960 | Retiring flit 9 (packet 9, src = 15, dest = 960, hops = 7, flat = 30).
30 | node960 | Retiring packet 9 (plat = 30, nlat = 30, frag = 0, src = 15, dest = 960).
30 | network_0/router_level3_136 | Beginning crossbar traversal for flit 10 from input 13.0 to output 0.0.
30 | network_0/router_level3_136 | Completed crossbar traversal for flit 10 from input 13.0 to output 0.0.
30 | network_0/router_level3_136 | Buffering flit 10 at output 0.
30 | network_0/network_0_fchan_egress512 | Completed channel traversal for flit 3.
30 | network_0/network_0_fchan_egress704 | Completed channel traversal for flit 5.
30 | network_0/network_0_fchan_egress768 | Completed channel traversal for flit 6.
30 | network_0/network_0_fchan_egress832 | Completed channel traversal for flit 7.
30 | network_0/network_0_fchan_egress896 | Completed channel traversal for flit 8.
30 | network_0/router_level3_136 | Sending flit 10 to channel at output 0.
31 | node512 | Ejecting flit 3 (packet 3) from VC 0.
31 | node704 | Ejecting flit 5 (packet 5) from VC 0.
31 | node768 | Ejecting flit 6 (packet 6) from VC 0.
31 | node832 | Ejecting flit 7 (packet 7) from VC 0.
31 | node896 | Ejecting flit 8 (packet 8) from VC 0.
31 | network_0/network_0_fchan_egress1088 | Beginning channel traversal for flit 10 with delay 1.
31 | node512 | Injecting credit for VC 0 into subnet 0.
31 | node512 | Retiring flit 3 (packet 3, src = 8, dest = 512, hops = 7, flat = 31).
31 | node512 | Retiring packet 3 (plat = 31, nlat = 31, frag = 0, src = 8, dest = 512).
31 | node704 | Injecting credit for VC 0 into subnet 0.
31 | node704 | Retiring flit 5 (packet 5, src = 11, dest = 704, hops = 7, flat = 31).
31 | node704 | Retiring packet 5 (plat = 31, nlat = 31, frag = 0, src = 11, dest = 704).
31 | node768 | Injecting credit for VC 0 into subnet 0.
31 | node768 | Retiring flit 6 (packet 6, src = 12, dest = 768, hops = 7, flat = 31).
31 | node768 | Retiring packet 6 (plat = 31, nlat = 31, frag = 0, src = 12, dest = 768).
31 | node832 | Injecting credit for VC 0 into subnet 0.
31 | node832 | Retiring flit 7 (packet 7, src = 13, dest = 832, hops = 7, flat = 31).
31 | node832 | Retiring packet 7 (plat = 31, nlat = 31, frag = 0, src = 13, dest = 832).
31 | node896 | Injecting credit for VC 0 into subnet 0.
31 | node896 | Retiring flit 8 (packet 8, src = 14, dest = 896, hops = 7, flat = 31).
31 | node896 | Retiring packet 8 (plat = 31, nlat = 31, frag = 0, src = 14, dest = 896).
31 | network_0/network_0_fchan_egress1088 | Completed channel traversal for flit 10.
32 | node1088 | Ejecting flit 10 (packet 10) from VC 0.
32 | node1088 | Injecting credit for VC 0 into subnet 0.
32 | node1088 | Retiring flit 10 (packet 10, src = 17, dest = 1088, hops = 7, flat = 32).
32 | node1088 | Retiring packet 10 (plat = 32, nlat = 32, frag = 0, src = 17, dest = 1088).
Class 0:
Packet latency average = 190.38
	minimum = 6
	maximum = 682
Network latency average = 190.363
	minimum = 6
	maximum = 682
Slowest packet = 766536
Flit latency average = 190.363
	minimum = 6
	maximum = 682
Slowest flit = 766536
Fragmentation average = 0
	minimum = 0
	maximum = 0
Injected packet rate average = 0.558028
	minimum = 0.438 (at node 273)
	maximum = 0.649 (at node 4089)
Accepted packet rate average = 0.383247
	minimum = 0.313 (at node 3695)
	maximum = 0.634 (at node 260)
Injected flit rate average = 0.558028
	minimum = 0.438 (at node 273)
	maximum = 0.649 (at node 4089)
Accepted flit rate average= 0.383247
	minimum = 0.313 (at node 3695)
	maximum = 0.634 (at node 260)
Injected packet length average = 1
Accepted packet length average = 1
Total in-flight flits = 718259 (0 measured)
latency change    = 1
throughput change = 1
Class 0:
Packet latency average = 357.739
	minimum = 6
	maximum = 1253
Network latency average = 307.602
	minimum = 6
	maximum = 1208
Slowest packet = 1735621
Flit latency average = 307.602
	minimum = 6
	maximum = 1208
Slowest flit = 1735621
Fragmentation average = 0
	minimum = 0
	maximum = 0
Injected packet rate average = 0.472319
	minimum = 0.359 (at node 3322)
	maximum = 0.627 (at node 1105)
Accepted packet rate average = 0.389957
	minimum = 0.301 (at node 3469)
	maximum = 0.6255 (at node 1105)
Injected flit rate average = 0.472319
	minimum = 0.359 (at node 3322)
	maximum = 0.627 (at node 1105)
Accepted flit rate average= 0.389957
	minimum = 0.301 (at node 3469)
	maximum = 0.6255 (at node 1105)
Injected packet length average = 1
Accepted packet length average = 1
Total in-flight flits = 677187 (0 measured)
latency change    = 0.467825
throughput change = 0.0172057
Class 0:
Packet latency average = 855.831
	minimum = 6
	maximum = 1712
Network latency average = 414.833
	minimum = 6
	maximum = 1358
Slowest packet = 2203816
Flit latency average = 414.833
	minimum = 6
	maximum = 1358
Slowest flit = 2203816
Fragmentation average = 0
	minimum = 0
	maximum = 0
Injected packet rate average = 0.388276
	minimum = 0.178 (at node 25)
	maximum = 0.643 (at node 2925)
Accepted packet rate average = 0.395641
	minimum = 0.216 (at node 3457)
	maximum = 0.642 (at node 2925)
Injected flit rate average = 0.388276
	minimum = 0.178 (at node 25)
	maximum = 0.643 (at node 2925)
Accepted flit rate average= 0.395641
	minimum = 0.216 (at node 3457)
	maximum = 0.642 (at node 2925)
Injected packet length average = 1
Accepted packet length average = 1
Total in-flight flits = 646991 (0 measured)
latency change    = 0.581998
throughput change = 0.0143662
Average latency for class 0 exceeded 500 cycles. Aborting simulation.
Too many sample periods needed to converge
Simulation unstable, ending ...
Total run time 637.517
