BEGIN Configuration File: examples/fattree_config_1.00_1_bitcomp
// $Id: dragonflyconfig 3555 2011-05-16 23:37:55Z dub $

// Copyright (c) 2007-2015, Trustees of The Leland Stanford Junior University
// All rights reserved.
//
// Redistribution and use in source and binary forms, with or without
// modification, are permitted provided that the following conditions are met:
//
// Redistributions of source code must retain the above copyright notice, this
// list of conditions and the following disclaimer.
// Redistributions in binary form must reproduce the above copyright notice,
// this list of conditions and the following disclaimer in the documentation
// and/or other materials provided with the distribution.
//
// THIS SOFTWARE IS PROVIDED BY THE COPYRIGHT HOLDERS AND CONTRIBUTORS "AS IS"
// AND ANY EXPRESS OR IMPLIED WARRANTIES, INCLUDING, BUT NOT LIMITED TO, THE
// IMPLIED WARRANTIES OF MERCHANTABILITY AND FITNESS FOR A PARTICULAR PURPOSE
// ARE DISCLAIMED. IN NO EVENT SHALL THE COPYRIGHT OWNER OR CONTRIBUTORS BE
// LIABLE FOR ANY DIRECT, INDIRECT, INCIDENTAL, SPECIAL, EXEMPLARY, OR
// CONSEQUENTIAL DAMAGES (INCLUDING, BUT NOT LIMITED TO, PROCUREMENT OF
// SUBSTITUTE GOODS OR SERVICES; LOSS OF USE, DATA, OR PROFITS; OR BUSINESS
// INTERRUPTION) HOWEVER CAUSED AND ON ANY THEORY OF LIABILITY, WHETHER IN
// CONTRACT, STRICT LIABILITY, OR TORT (INCLUDING NEGLIGENCE OR OTHERWISE)
// ARISING IN ANY WAY OUT OF THE USE OF THIS SOFTWARE, EVEN IF ADVISED OF THE
// POSSIBILITY OF SUCH DAMAGE.


hold_switch_for_packet=1;

vc_buf_size = 16;


wait_for_tail_credit = 0;

//
// Router architecture
//
vc_allocator = separable_input_first; 
sw_allocator = separable_input_first;
alloc_iters  = 1;

credit_delay   = 2;
routing_delay  = 0;
vc_alloc_delay = 1;
sw_alloc_delay = 1;
st_final_delay = 1;

input_speedup     = 1;
output_speedup    = 1;
internal_speedup  = 1.0;


warmup_periods = 3;
sim_count          = 1;

sample_period  = 1000;  

routing_function = nca;
num_vcs     = 4;

priority = none;
traffic = bitcomp;


injection_rate = 1.00;
packet_size = 1;
injection_rate_uses_flits=1;

topology = fattree;

k  = 8;
n  = 4;
t = 1;

watch_file = watchfile.txt;
watch_out=-;
stats_out = examples/fattree_config_1.00_1_bitcomp.m;

END Configuration File: examples/fattree_config_1.00_1_bitcomp
Fat Tree
 k = 8 levels = 4
 each switch - total radix =  16
 # of switches = 2048
 # of channels = 24576
 # of nodes ( size of network ) = 4096
 tapering factor = 1
0 | node1 | Enqueuing flit 1 (packet 1) at time 0.
0 | node2 | Enqueuing flit 2 (packet 2) at time 0.
0 | node3 | Enqueuing flit 3 (packet 3) at time 0.
0 | node4 | Enqueuing flit 4 (packet 4) at time 0.
0 | node5 | Enqueuing flit 5 (packet 5) at time 0.
0 | node6 | Enqueuing flit 6 (packet 6) at time 0.
0 | node7 | Enqueuing flit 7 (packet 7) at time 0.
0 | node8 | Enqueuing flit 8 (packet 8) at time 0.
0 | node9 | Enqueuing flit 9 (packet 9) at time 0.
0 | node10 | Enqueuing flit 10 (packet 10) at time 0.
0 | traffic_manager | Finding output VC for flit 1:
0 | traffic_manager |   Selected output VC 0.
0 | node1 | Generating lookahead routing info for flit 1.
0 | node1 | Injecting flit 1 into subnet 0 at time 0 with priority 0.
0 | traffic_manager | Finding output VC for flit 2:
0 | traffic_manager |   Selected output VC 0.
0 | node2 | Generating lookahead routing info for flit 2.
0 | node2 | Injecting flit 2 into subnet 0 at time 0 with priority 0.
0 | traffic_manager | Finding output VC for flit 3:
0 | traffic_manager |   Selected output VC 0.
0 | node3 | Generating lookahead routing info for flit 3.
0 | node3 | Injecting flit 3 into subnet 0 at time 0 with priority 0.
0 | traffic_manager | Finding output VC for flit 4:
0 | traffic_manager |   Selected output VC 0.
0 | node4 | Generating lookahead routing info for flit 4.
0 | node4 | Injecting flit 4 into subnet 0 at time 0 with priority 0.
0 | traffic_manager | Finding output VC for flit 5:
0 | traffic_manager |   Selected output VC 0.
0 | node5 | Generating lookahead routing info for flit 5.
0 | node5 | Injecting flit 5 into subnet 0 at time 0 with priority 0.
0 | traffic_manager | Finding output VC for flit 6:
0 | traffic_manager |   Selected output VC 0.
0 | node6 | Generating lookahead routing info for flit 6.
0 | node6 | Injecting flit 6 into subnet 0 at time 0 with priority 0.
0 | traffic_manager | Finding output VC for flit 7:
0 | traffic_manager |   Selected output VC 0.
0 | node7 | Generating lookahead routing info for flit 7.
0 | node7 | Injecting flit 7 into subnet 0 at time 0 with priority 0.
0 | traffic_manager | Finding output VC for flit 8:
0 | traffic_manager |   Selected output VC 0.
0 | node8 | Generating lookahead routing info for flit 8.
0 | node8 | Injecting flit 8 into subnet 0 at time 0 with priority 0.
0 | traffic_manager | Finding output VC for flit 9:
0 | traffic_manager |   Selected output VC 0.
0 | node9 | Generating lookahead routing info for flit 9.
0 | node9 | Injecting flit 9 into subnet 0 at time 0 with priority 0.
0 | traffic_manager | Finding output VC for flit 10:
0 | traffic_manager |   Selected output VC 0.
0 | node10 | Generating lookahead routing info for flit 10.
0 | node10 | Injecting flit 10 into subnet 0 at time 0 with priority 0.
1 | network_0/network_0_fchan_ingress1 | Beginning channel traversal for flit 1 with delay 1.
1 | network_0/network_0_fchan_ingress2 | Beginning channel traversal for flit 2 with delay 1.
1 | network_0/network_0_fchan_ingress3 | Beginning channel traversal for flit 3 with delay 1.
1 | network_0/network_0_fchan_ingress4 | Beginning channel traversal for flit 4 with delay 1.
1 | network_0/network_0_fchan_ingress5 | Beginning channel traversal for flit 5 with delay 1.
1 | network_0/network_0_fchan_ingress6 | Beginning channel traversal for flit 6 with delay 1.
1 | network_0/network_0_fchan_ingress7 | Beginning channel traversal for flit 7 with delay 1.
1 | network_0/network_0_fchan_ingress8 | Beginning channel traversal for flit 8 with delay 1.
1 | network_0/network_0_fchan_ingress9 | Beginning channel traversal for flit 9 with delay 1.
1 | network_0/network_0_fchan_ingress10 | Beginning channel traversal for flit 10 with delay 1.
1 | network_0/network_0_fchan_ingress1 | Completed channel traversal for flit 1.
1 | network_0/network_0_fchan_ingress2 | Completed channel traversal for flit 2.
1 | network_0/network_0_fchan_ingress3 | Completed channel traversal for flit 3.
1 | network_0/network_0_fchan_ingress4 | Completed channel traversal for flit 4.
1 | network_0/network_0_fchan_ingress5 | Completed channel traversal for flit 5.
1 | network_0/network_0_fchan_ingress6 | Completed channel traversal for flit 6.
1 | network_0/network_0_fchan_ingress7 | Completed channel traversal for flit 7.
1 | network_0/network_0_fchan_ingress8 | Completed channel traversal for flit 8.
1 | network_0/network_0_fchan_ingress9 | Completed channel traversal for flit 9.
1 | network_0/network_0_fchan_ingress10 | Completed channel traversal for flit 10.
2 | network_0/router_level3_0 | Received flit 1 from channel at input 1.
2 | network_0/router_level3_0 | Received flit 2 from channel at input 2.
2 | network_0/router_level3_0 | Received flit 3 from channel at input 3.
2 | network_0/router_level3_0 | Received flit 4 from channel at input 4.
2 | network_0/router_level3_0 | Received flit 5 from channel at input 5.
2 | network_0/router_level3_0 | Received flit 6 from channel at input 6.
2 | network_0/router_level3_0 | Received flit 7 from channel at input 7.
2 | network_0/router_level3_1 | Received flit 8 from channel at input 0.
2 | network_0/router_level3_1 | Received flit 9 from channel at input 1.
2 | network_0/router_level3_1 | Received flit 10 from channel at input 2.
2 | network_0/router_level3_0 | Adding flit 1 to VC 0 at input 1 (state: idle, empty).
2 | network_0/router_level3_0 | Using precomputed lookahead routing information for VC 0 at input 1 (front: 1).
2 | network_0/router_level3_0/buf_1/vc_0 | Changing state from idle to vc_alloc.
2 | network_0/router_level3_0 | Adding flit 2 to VC 0 at input 2 (state: idle, empty).
2 | network_0/router_level3_0 | Using precomputed lookahead routing information for VC 0 at input 2 (front: 2).
2 | network_0/router_level3_0/buf_2/vc_0 | Changing state from idle to vc_alloc.
2 | network_0/router_level3_0 | Adding flit 3 to VC 0 at input 3 (state: idle, empty).
2 | network_0/router_level3_0 | Using precomputed lookahead routing information for VC 0 at input 3 (front: 3).
2 | network_0/router_level3_0/buf_3/vc_0 | Changing state from idle to vc_alloc.
2 | network_0/router_level3_0 | Adding flit 4 to VC 0 at input 4 (state: idle, empty).
2 | network_0/router_level3_0 | Using precomputed lookahead routing information for VC 0 at input 4 (front: 4).
2 | network_0/router_level3_0/buf_4/vc_0 | Changing state from idle to vc_alloc.
2 | network_0/router_level3_0 | Adding flit 5 to VC 0 at input 5 (state: idle, empty).
2 | network_0/router_level3_0 | Using precomputed lookahead routing information for VC 0 at input 5 (front: 5).
2 | network_0/router_level3_0/buf_5/vc_0 | Changing state from idle to vc_alloc.
2 | network_0/router_level3_0 | Adding flit 6 to VC 0 at input 6 (state: idle, empty).
2 | network_0/router_level3_0 | Using precomputed lookahead routing information for VC 0 at input 6 (front: 6).
2 | network_0/router_level3_0/buf_6/vc_0 | Changing state from idle to vc_alloc.
2 | network_0/router_level3_0 | Adding flit 7 to VC 0 at input 7 (state: idle, empty).
2 | network_0/router_level3_0 | Using precomputed lookahead routing information for VC 0 at input 7 (front: 7).
2 | network_0/router_level3_0/buf_7/vc_0 | Changing state from idle to vc_alloc.
2 | network_0/router_level3_0 | Beginning VC allocation for VC 0 at input 1 (front: 1).
2 | network_0/router_level3_0 |   Requesting VC 0 at output 10 (in_pri: 0, out_pri: 0).
2 | network_0/router_level3_0 |   Requesting VC 1 at output 10 (in_pri: 0, out_pri: 0).
2 | network_0/router_level3_0 |   Requesting VC 2 at output 10 (in_pri: 0, out_pri: 0).
2 | network_0/router_level3_0 |   Requesting VC 3 at output 10 (in_pri: 0, out_pri: 0).
2 | network_0/router_level3_0 | Beginning VC allocation for VC 0 at input 2 (front: 2).
2 | network_0/router_level3_0 |   Requesting VC 0 at output 9 (in_pri: 0, out_pri: 0).
2 | network_0/router_level3_0 |   Requesting VC 1 at output 9 (in_pri: 0, out_pri: 0).
2 | network_0/router_level3_0 |   Requesting VC 2 at output 9 (in_pri: 0, out_pri: 0).
2 | network_0/router_level3_0 |   Requesting VC 3 at output 9 (in_pri: 0, out_pri: 0).
2 | network_0/router_level3_0 | Beginning VC allocation for VC 0 at input 3 (front: 3).
2 | network_0/router_level3_0 |   Requesting VC 0 at output 9 (in_pri: 0, out_pri: 0).
2 | network_0/router_level3_0 |   Requesting VC 1 at output 9 (in_pri: 0, out_pri: 0).
2 | network_0/router_level3_0 |   Requesting VC 2 at output 9 (in_pri: 0, out_pri: 0).
2 | network_0/router_level3_0 |   Requesting VC 3 at output 9 (in_pri: 0, out_pri: 0).
2 | network_0/router_level3_0 | Beginning VC allocation for VC 0 at input 4 (front: 4).
2 | network_0/router_level3_0 |   Requesting VC 0 at output 15 (in_pri: 0, out_pri: 0).
2 | network_0/router_level3_0 |   Requesting VC 1 at output 15 (in_pri: 0, out_pri: 0).
2 | network_0/router_level3_0 |   Requesting VC 2 at output 15 (in_pri: 0, out_pri: 0).
2 | network_0/router_level3_0 |   Requesting VC 3 at output 15 (in_pri: 0, out_pri: 0).
2 | network_0/router_level3_0 | Beginning VC allocation for VC 0 at input 5 (front: 5).
2 | network_0/router_level3_0 |   Requesting VC 0 at output 9 (in_pri: 0, out_pri: 0).
2 | network_0/router_level3_0 |   Requesting VC 1 at output 9 (in_pri: 0, out_pri: 0).
2 | network_0/router_level3_0 |   Requesting VC 2 at output 9 (in_pri: 0, out_pri: 0).
2 | network_0/router_level3_0 |   Requesting VC 3 at output 9 (in_pri: 0, out_pri: 0).
2 | network_0/router_level3_0 | Beginning VC allocation for VC 0 at input 6 (front: 6).
2 | network_0/router_level3_0 |   Requesting VC 0 at output 12 (in_pri: 0, out_pri: 0).
2 | network_0/router_level3_0 |   Requesting VC 1 at output 12 (in_pri: 0, out_pri: 0).
2 | network_0/router_level3_0 |   Requesting VC 2 at output 12 (in_pri: 0, out_pri: 0).
2 | network_0/router_level3_0 |   Requesting VC 3 at output 12 (in_pri: 0, out_pri: 0).
2 | network_0/router_level3_0 | Beginning VC allocation for VC 0 at input 7 (front: 7).
2 | network_0/router_level3_0 |   Requesting VC 0 at output 8 (in_pri: 0, out_pri: 0).
2 | network_0/router_level3_0 |   Requesting VC 1 at output 8 (in_pri: 0, out_pri: 0).
2 | network_0/router_level3_0 |   Requesting VC 2 at output 8 (in_pri: 0, out_pri: 0).
2 | network_0/router_level3_0 |   Requesting VC 3 at output 8 (in_pri: 0, out_pri: 0).
2 | network_0/router_level3_0/vc_allocator | Input requests = [ 0 -> [ 32@0 33@0 34@0 35@0 ]  4 -> [ 40@0 41@0 42@0 43@0 ]  8 -> [ 36@0 37@0 38@0 39@0 ]  12 -> [ 36@0 37@0 38@0 39@0 ]  16 -> [ 60@0 61@0 62@0 63@0 ]  20 -> [ 36@0 37@0 38@0 39@0 ]  24 -> [ 48@0 49@0 50@0 51@0 ]  28 -> [ 32@0 33@0 34@0 35@0 ]  ], output requests = [ 32 -> [ 0@0 28@0 ]  33 -> [ 0@0 28@0 ]  34 -> [ 0@0 28@0 ]  35 -> [ 0@0 28@0 ]  36 -> [ 8@0 12@0 20@0 ]  37 -> [ 8@0 12@0 20@0 ]  38 -> [ 8@0 12@0 20@0 ]  39 -> [ 8@0 12@0 20@0 ]  40 -> [ 4@0 ]  41 -> [ 4@0 ]  42 -> [ 4@0 ]  43 -> [ 4@0 ]  48 -> [ 24@0 ]  49 -> [ 24@0 ]  50 -> [ 24@0 ]  51 -> [ 24@0 ]  60 -> [ 16@0 ]  61 -> [ 16@0 ]  62 -> [ 16@0 ]  63 -> [ 16@0 ]  ].
2 | network_0/router_level3_0/vc_allocator | Input grants = [ 0 -> 32  4 -> 40  8 -> 36  16 -> 60  24 -> 48  ], output grants = [ 32 -> 0  36 -> 8  40 -> 4  48 -> 24  60 -> 16  ].
2 | network_0/router_level3_0 | Assigning VC 0 at output 10 to VC 0 at input 1.
2 | network_0/router_level3_0 | Assigning VC 0 at output 9 to VC 0 at input 2.
2 | network_0/router_level3_0 | VC allocation failed for VC 0 at input 3.
2 | network_0/router_level3_0 | Assigning VC 0 at output 15 to VC 0 at input 4.
2 | network_0/router_level3_0 | VC allocation failed for VC 0 at input 5.
2 | network_0/router_level3_0 | Assigning VC 0 at output 12 to VC 0 at input 6.
2 | network_0/router_level3_0 | VC allocation failed for VC 0 at input 7.
2 | network_0/router_level3_0 | Completed VC allocation for VC 0 at input 1 (front: 1).
2 | network_0/router_level3_0 |   Acquiring assigned VC 0 at output 10.
2 | network_0/router_level3_0/buf_1/vc_0 | Changing state from vc_alloc to active.
2 | network_0/router_level3_0 | Completed VC allocation for VC 0 at input 2 (front: 2).
2 | network_0/router_level3_0 |   Acquiring assigned VC 0 at output 9.
2 | network_0/router_level3_0/buf_2/vc_0 | Changing state from vc_alloc to active.
2 | network_0/router_level3_0 | Completed VC allocation for VC 0 at input 3 (front: 3).
2 | network_0/router_level3_0 |   No output VC allocated.
2 | network_0/router_level3_0 | Completed VC allocation for VC 0 at input 4 (front: 4).
2 | network_0/router_level3_0 |   Acquiring assigned VC 0 at output 15.
2 | network_0/router_level3_0/buf_4/vc_0 | Changing state from vc_alloc to active.
2 | network_0/router_level3_0 | Completed VC allocation for VC 0 at input 5 (front: 5).
2 | network_0/router_level3_0 |   No output VC allocated.
2 | network_0/router_level3_0 | Completed VC allocation for VC 0 at input 6 (front: 6).
2 | network_0/router_level3_0 |   Acquiring assigned VC 0 at output 12.
2 | network_0/router_level3_0/buf_6/vc_0 | Changing state from vc_alloc to active.
2 | network_0/router_level3_0 | Completed VC allocation for VC 0 at input 7 (front: 7).
2 | network_0/router_level3_0 |   No output VC allocated.
2 | network_0/router_level3_1 | Adding flit 8 to VC 0 at input 0 (state: idle, empty).
2 | network_0/router_level3_1 | Using precomputed lookahead routing information for VC 0 at input 0 (front: 8).
2 | network_0/router_level3_1/buf_0/vc_0 | Changing state from idle to vc_alloc.
2 | network_0/router_level3_1 | Adding flit 9 to VC 0 at input 1 (state: idle, empty).
2 | network_0/router_level3_1 | Using precomputed lookahead routing information for VC 0 at input 1 (front: 9).
2 | network_0/router_level3_1/buf_1/vc_0 | Changing state from idle to vc_alloc.
2 | network_0/router_level3_1 | Adding flit 10 to VC 0 at input 2 (state: idle, empty).
2 | network_0/router_level3_1 | Using precomputed lookahead routing information for VC 0 at input 2 (front: 10).
2 | network_0/router_level3_1/buf_2/vc_0 | Changing state from idle to vc_alloc.
2 | network_0/router_level3_1 | Beginning VC allocation for VC 0 at input 0 (front: 8).
2 | network_0/router_level3_1 |   Requesting VC 0 at output 11 (in_pri: 0, out_pri: 0).
2 | network_0/router_level3_1 |   Requesting VC 1 at output 11 (in_pri: 0, out_pri: 0).
2 | network_0/router_level3_1 |   Requesting VC 2 at output 11 (in_pri: 0, out_pri: 0).
2 | network_0/router_level3_1 |   Requesting VC 3 at output 11 (in_pri: 0, out_pri: 0).
2 | network_0/router_level3_1 | Beginning VC allocation for VC 0 at input 1 (front: 9).
2 | network_0/router_level3_1 |   Requesting VC 0 at output 15 (in_pri: 0, out_pri: 0).
2 | network_0/router_level3_1 |   Requesting VC 1 at output 15 (in_pri: 0, out_pri: 0).
2 | network_0/router_level3_1 |   Requesting VC 2 at output 15 (in_pri: 0, out_pri: 0).
2 | network_0/router_level3_1 |   Requesting VC 3 at output 15 (in_pri: 0, out_pri: 0).
2 | network_0/router_level3_1 | Beginning VC allocation for VC 0 at input 2 (front: 10).
2 | network_0/router_level3_1 |   Requesting VC 0 at output 9 (in_pri: 0, out_pri: 0).
2 | network_0/router_level3_1 |   Requesting VC 1 at output 9 (in_pri: 0, out_pri: 0).
2 | network_0/router_level3_1 |   Requesting VC 2 at output 9 (in_pri: 0, out_pri: 0).
2 | network_0/router_level3_1 |   Requesting VC 3 at output 9 (in_pri: 0, out_pri: 0).
2 | network_0/router_level3_1/vc_allocator | Input requests = [ 0 -> [ 44@0 45@0 46@0 47@0 ]  4 -> [ 60@0 61@0 62@0 63@0 ]  8 -> [ 36@0 37@0 38@0 39@0 ]  12 -> [ 32@0 33@0 34@0 35@0 ]  16 -> [ 44@0 45@0 46@0 47@0 ]  20 -> [ 36@0 37@0 38@0 39@0 ]  24 -> [ 40@0 41@0 42@0 43@0 ]  28 -> [ 48@0 49@0 50@0 51@0 ]  ], output requests = [ 32 -> [ 12@0 ]  33 -> [ 12@0 ]  34 -> [ 12@0 ]  35 -> [ 12@0 ]  36 -> [ 8@0 20@0 ]  37 -> [ 8@0 20@0 ]  38 -> [ 8@0 20@0 ]  39 -> [ 8@0 20@0 ]  40 -> [ 24@0 ]  41 -> [ 24@0 ]  42 -> [ 24@0 ]  43 -> [ 24@0 ]  44 -> [ 0@0 16@0 ]  45 -> [ 0@0 16@0 ]  46 -> [ 0@0 16@0 ]  47 -> [ 0@0 16@0 ]  48 -> [ 28@0 ]  49 -> [ 28@0 ]  50 -> [ 28@0 ]  51 -> [ 28@0 ]  60 -> [ 4@0 ]  61 -> [ 4@0 ]  62 -> [ 4@0 ]  63 -> [ 4@0 ]  ].
2 | network_0/router_level3_1/vc_allocator | Input grants = [ 0 -> 44  4 -> 60  8 -> 36  12 -> 32  24 -> 40  28 -> 48  ], output grants = [ 32 -> 12  36 -> 8  40 -> 24  44 -> 0  48 -> 28  60 -> 4  ].
2 | network_0/router_level3_1 | Assigning VC 0 at output 11 to VC 0 at input 0.
2 | network_0/router_level3_1 | Assigning VC 0 at output 15 to VC 0 at input 1.
2 | network_0/router_level3_1 | Assigning VC 0 at output 9 to VC 0 at input 2.
2 | network_0/router_level3_1 | Completed VC allocation for VC 0 at input 0 (front: 8).
2 | network_0/router_level3_1 |   Acquiring assigned VC 0 at output 11.
2 | network_0/router_level3_1/buf_0/vc_0 | Changing state from vc_alloc to active.
2 | network_0/router_level3_1 | Completed VC allocation for VC 0 at input 1 (front: 9).
2 | network_0/router_level3_1 |   Acquiring assigned VC 0 at output 15.
2 | network_0/router_level3_1/buf_1/vc_0 | Changing state from vc_alloc to active.
2 | network_0/router_level3_1 | Completed VC allocation for VC 0 at input 2 (front: 10).
2 | network_0/router_level3_1 |   Acquiring assigned VC 0 at output 9.
2 | network_0/router_level3_1/buf_2/vc_0 | Changing state from vc_alloc to active.
3 | network_0/router_level3_0 | Beginning VC allocation for VC 0 at input 3 (front: 3).
3 | network_0/router_level3_0 |   VC 0 at output 9 is in use by VC 0 at input 2 (front flit: 2).
3 | network_0/router_level3_0 |   Requesting VC 1 at output 9 (in_pri: 0, out_pri: 0).
3 | network_0/router_level3_0 |   Requesting VC 2 at output 9 (in_pri: 0, out_pri: 0).
3 | network_0/router_level3_0 |   Requesting VC 3 at output 9 (in_pri: 0, out_pri: 0).
3 | network_0/router_level3_0 | Beginning VC allocation for VC 0 at input 5 (front: 5).
3 | network_0/router_level3_0 |   VC 0 at output 9 is in use by VC 0 at input 2 (front flit: 2).
3 | network_0/router_level3_0 |   Requesting VC 1 at output 9 (in_pri: 0, out_pri: 0).
3 | network_0/router_level3_0 |   Requesting VC 2 at output 9 (in_pri: 0, out_pri: 0).
3 | network_0/router_level3_0 |   Requesting VC 3 at output 9 (in_pri: 0, out_pri: 0).
3 | network_0/router_level3_0 | Beginning VC allocation for VC 0 at input 7 (front: 7).
3 | network_0/router_level3_0 |   VC 0 at output 8 is in use by VC 0 at input 0 (front flit: 0).
3 | network_0/router_level3_0 |   Requesting VC 1 at output 8 (in_pri: 0, out_pri: 0).
3 | network_0/router_level3_0 |   Requesting VC 2 at output 8 (in_pri: 0, out_pri: 0).
3 | network_0/router_level3_0 |   Requesting VC 3 at output 8 (in_pri: 0, out_pri: 0).
3 | network_0/router_level3_0/vc_allocator | Input requests = [ 1 -> [ 49@0 50@0 51@0 ]  5 -> [ 33@0 34@0 35@0 ]  9 -> [ 56@0 57@0 58@0 59@0 ]  12 -> [ 37@0 38@0 39@0 ]  13 -> [ 56@0 57@0 58@0 59@0 ]  17 -> [ 49@0 50@0 51@0 ]  20 -> [ 37@0 38@0 39@0 ]  21 -> [ 52@0 53@0 54@0 55@0 ]  25 -> [ 52@0 53@0 54@0 55@0 ]  28 -> [ 33@0 34@0 35@0 ]  29 -> [ 44@0 45@0 46@0 47@0 ]  ], output requests = [ 33 -> [ 5@0 28@0 ]  34 -> [ 5@0 28@0 ]  35 -> [ 5@0 28@0 ]  37 -> [ 12@0 20@0 ]  38 -> [ 12@0 20@0 ]  39 -> [ 12@0 20@0 ]  44 -> [ 29@0 ]  45 -> [ 29@0 ]  46 -> [ 29@0 ]  47 -> [ 29@0 ]  49 -> [ 1@0 17@0 ]  50 -> [ 1@0 17@0 ]  51 -> [ 1@0 17@0 ]  52 -> [ 21@0 25@0 ]  53 -> [ 21@0 25@0 ]  54 -> [ 21@0 25@0 ]  55 -> [ 21@0 25@0 ]  56 -> [ 9@0 13@0 ]  57 -> [ 9@0 13@0 ]  58 -> [ 9@0 13@0 ]  59 -> [ 9@0 13@0 ]  ].
3 | network_0/router_level3_0/vc_allocator | Input grants = [ 1 -> 49  5 -> 33  9 -> 56  12 -> 37  21 -> 52  29 -> 44  ], output grants = [ 33 -> 5  37 -> 12  44 -> 29  49 -> 1  52 -> 21  56 -> 9  ].
3 | network_0/router_level3_0 | Assigning VC 1 at output 9 to VC 0 at input 3.
3 | network_0/router_level3_0 | VC allocation failed for VC 0 at input 5.
3 | network_0/router_level3_0 | VC allocation failed for VC 0 at input 7.
3 | network_0/router_level3_0 | Beginning switch allocation for VC 0 at input 1 (front: 1).
3 | network_0/router_level3_0 |   Requesting output 10.0 (non-spec, pri: 0).
3 | network_0/router_level3_0 | Beginning switch allocation for VC 0 at input 2 (front: 2).
3 | network_0/router_level3_0 |   Requesting output 9.0 (non-spec, pri: 0).
3 | network_0/router_level3_0 | Beginning switch allocation for VC 0 at input 4 (front: 4).
3 | network_0/router_level3_0 |   Requesting output 15.0 (non-spec, pri: 0).
3 | network_0/router_level3_0 | Beginning switch allocation for VC 0 at input 6 (front: 6).
3 | network_0/router_level3_0 |   Requesting output 12.0 (non-spec, pri: 0).
3 | network_0/router_level3_0/sw_allocator | Input requests = [ 0 -> [ 8@0 ]  1 -> [ 10@0 ]  2 -> [ 9@0 ]  4 -> [ 15@0 ]  6 -> [ 12@0 ]  ], output requests = [ 8 -> [ 0@0 ]  9 -> [ 2@0 ]  10 -> [ 1@0 ]  12 -> [ 6@0 ]  15 -> [ 4@0 ]  ].
3 | network_0/router_level3_0/sw_allocator | Input grants = [ 0 -> 8  1 -> 10  2 -> 9  4 -> 15  6 -> 12  ], output grants = [ 8 -> 0  9 -> 2  10 -> 1  12 -> 6  15 -> 4  ].
3 | network_0/router_level3_0 | Assigning output 10.0 to VC 0 at input 1.0.
3 | network_0/router_level3_0 | Assigning output 9.0 to VC 0 at input 2.0.
3 | network_0/router_level3_0 | Assigning output 15.0 to VC 0 at input 4.0.
3 | network_0/router_level3_0 | Assigning output 12.0 to VC 0 at input 6.0.
3 | network_0/router_level3_0 | Completed VC allocation for VC 0 at input 3 (front: 3).
3 | network_0/router_level3_0 |   Acquiring assigned VC 1 at output 9.
3 | network_0/router_level3_0/buf_3/vc_0 | Changing state from vc_alloc to active.
3 | network_0/router_level3_0 | Completed VC allocation for VC 0 at input 5 (front: 5).
3 | network_0/router_level3_0 |   No output VC allocated.
3 | network_0/router_level3_0 | Completed VC allocation for VC 0 at input 7 (front: 7).
3 | network_0/router_level3_0 |   No output VC allocated.
3 | network_0/router_level3_0 | Completed switch allocation for VC 0 at input 1 (front: 1).
3 | network_0/router_level3_0 |   Scheduling switch connection from input 1.0 to output 10.0.
3 | network_0/router_level3_0 | Updating lookahead routing information for flit 1.
3 | network_0/router_level3_0 | Completed switch allocation for VC 0 at input 2 (front: 2).
3 | network_0/router_level3_0 |   Scheduling switch connection from input 2.0 to output 9.0.
3 | network_0/router_level3_0 | Updating lookahead routing information for flit 2.
3 | network_0/router_level3_0 | Completed switch allocation for VC 0 at input 4 (front: 4).
3 | network_0/router_level3_0 |   Scheduling switch connection from input 4.0 to output 15.0.
3 | network_0/router_level3_0 | Updating lookahead routing information for flit 4.
3 | network_0/router_level3_0 | Completed switch allocation for VC 0 at input 6 (front: 6).
3 | network_0/router_level3_0 |   Scheduling switch connection from input 6.0 to output 12.0.
3 | network_0/router_level3_0 | Updating lookahead routing information for flit 6.
3 | network_0/router_level3_1 | Beginning switch allocation for VC 0 at input 0 (front: 8).
3 | network_0/router_level3_1 |   Requesting output 11.0 (non-spec, pri: 0).
3 | network_0/router_level3_1 | Beginning switch allocation for VC 0 at input 1 (front: 9).
3 | network_0/router_level3_1 |   Requesting output 15.0 (non-spec, pri: 0).
3 | network_0/router_level3_1 | Beginning switch allocation for VC 0 at input 2 (front: 10).
3 | network_0/router_level3_1 |   Requesting output 9.0 (non-spec, pri: 0).
3 | network_0/router_level3_1/sw_allocator | Input requests = [ 0 -> [ 11@0 ]  1 -> [ 15@0 ]  2 -> [ 9@0 ]  3 -> [ 8@0 ]  6 -> [ 10@0 ]  7 -> [ 12@0 ]  ], output requests = [ 8 -> [ 3@0 ]  9 -> [ 2@0 ]  10 -> [ 6@0 ]  11 -> [ 0@0 ]  12 -> [ 7@0 ]  15 -> [ 1@0 ]  ].
3 | network_0/router_level3_1/sw_allocator | Input grants = [ 0 -> 11  1 -> 15  2 -> 9  3 -> 8  6 -> 10  7 -> 12  ], output grants = [ 8 -> 3  9 -> 2  10 -> 6  11 -> 0  12 -> 7  15 -> 1  ].
3 | network_0/router_level3_1 | Assigning output 11.0 to VC 0 at input 0.0.
3 | network_0/router_level3_1 | Assigning output 15.0 to VC 0 at input 1.0.
3 | network_0/router_level3_1 | Assigning output 9.0 to VC 0 at input 2.0.
3 | network_0/router_level3_1 | Completed switch allocation for VC 0 at input 0 (front: 8).
3 | network_0/router_level3_1 |   Scheduling switch connection from input 0.0 to output 11.0.
3 | network_0/router_level3_1 | Updating lookahead routing information for flit 8.
3 | network_0/router_level3_1 | Completed switch allocation for VC 0 at input 1 (front: 9).
3 | network_0/router_level3_1 |   Scheduling switch connection from input 1.0 to output 15.0.
3 | network_0/router_level3_1 | Updating lookahead routing information for flit 9.
3 | network_0/router_level3_1 | Completed switch allocation for VC 0 at input 2 (front: 10).
3 | network_0/router_level3_1 |   Scheduling switch connection from input 2.0 to output 9.0.
3 | network_0/router_level3_1 | Updating lookahead routing information for flit 10.
4 | network_0/router_level3_0 | Beginning VC allocation for VC 0 at input 5 (front: 5).
4 | network_0/router_level3_0 |   Requesting VC 0 at output 9 (in_pri: 0, out_pri: 0).
4 | network_0/router_level3_0 |   VC 1 at output 9 is in use by VC 0 at input 3 (front flit: 3).
4 | network_0/router_level3_0 |   Requesting VC 2 at output 9 (in_pri: 0, out_pri: 0).
4 | network_0/router_level3_0 |   Requesting VC 3 at output 9 (in_pri: 0, out_pri: 0).
4 | network_0/router_level3_0 | Beginning VC allocation for VC 0 at input 7 (front: 7).
4 | network_0/router_level3_0 |   Requesting VC 0 at output 8 (in_pri: 0, out_pri: 0).
4 | network_0/router_level3_0 |   VC 1 at output 8 is in use by VC 1 at input 1 (front flit: 4097).
4 | network_0/router_level3_0 |   Requesting VC 2 at output 8 (in_pri: 0, out_pri: 0).
4 | network_0/router_level3_0 |   Requesting VC 3 at output 8 (in_pri: 0, out_pri: 0).
4 | network_0/router_level3_0/vc_allocator | Input requests = [ 2 -> [ 45@0 46@0 47@0 ]  6 -> [ 57@0 58@0 59@0 ]  10 -> [ 57@0 58@0 59@0 ]  13 -> [ 57@0 58@0 59@0 ]  14 -> [ 32@0 34@0 35@0 ]  17 -> [ 48@0 50@0 51@0 ]  18 -> [ 32@0 34@0 35@0 ]  20 -> [ 36@0 38@0 39@0 ]  22 -> [ 32@0 34@0 35@0 ]  25 -> [ 53@0 54@0 55@0 ]  26 -> [ 57@0 58@0 59@0 ]  28 -> [ 32@0 34@0 35@0 ]  30 -> [ 48@0 50@0 51@0 ]  ], output requests = [ 32 -> [ 14@0 18@0 22@0 28@0 ]  34 -> [ 14@0 18@0 22@0 28@0 ]  35 -> [ 14@0 18@0 22@0 28@0 ]  36 -> [ 20@0 ]  38 -> [ 20@0 ]  39 -> [ 20@0 ]  45 -> [ 2@0 ]  46 -> [ 2@0 ]  47 -> [ 2@0 ]  48 -> [ 17@0 30@0 ]  50 -> [ 17@0 30@0 ]  51 -> [ 17@0 30@0 ]  53 -> [ 25@0 ]  54 -> [ 25@0 ]  55 -> [ 25@0 ]  57 -> [ 6@0 10@0 13@0 26@0 ]  58 -> [ 6@0 10@0 13@0 26@0 ]  59 -> [ 6@0 10@0 13@0 26@0 ]  ].
4 | network_0/router_level3_0/vc_allocator | Input grants = [ 2 -> 45  6 -> 57  14 -> 32  20 -> 36  25 -> 53  30 -> 48  ], output grants = [ 32 -> 14  36 -> 20  45 -> 2  48 -> 30  53 -> 25  57 -> 6  ].
4 | network_0/router_level3_0 | Assigning VC 0 at output 9 to VC 0 at input 5.
4 | network_0/router_level3_0 | VC allocation failed for VC 0 at input 7.
4 | network_0/router_level3_0 | Beginning switch allocation for VC 0 at input 3 (front: 3).
4 | network_0/router_level3_0 |   Requesting output 9.0 (non-spec, pri: 0).
4 | network_0/router_level3_0/sw_allocator | Input requests = [ 0 -> [ 12@0 ]  1 -> [ 8@0 ]  2 -> [ 14@0 ]  3 -> [ 9@0 ]  5 -> [ 13@0 ]  7 -> [ 11@0 ]  ], output requests = [ 8 -> [ 1@0 ]  9 -> [ 3@0 ]  11 -> [ 7@0 ]  12 -> [ 0@0 ]  13 -> [ 5@0 ]  14 -> [ 2@0 ]  ].
4 | network_0/router_level3_0/sw_allocator | Input grants = [ 0 -> 12  1 -> 8  2 -> 14  3 -> 9  5 -> 13  7 -> 11  ], output grants = [ 8 -> 1  9 -> 3  11 -> 7  12 -> 0  13 -> 5  14 -> 2  ].
4 | network_0/router_level3_0 | Assigning output 9.0 to VC 0 at input 3.0.
4 | network_0/router_level3_0 | Beginning crossbar traversal for flit 1 from input 1.0 to output 10.0.
4 | network_0/router_level3_0 | Beginning crossbar traversal for flit 2 from input 2.0 to output 9.0.
4 | network_0/router_level3_0 | Beginning crossbar traversal for flit 4 from input 4.0 to output 15.0.
4 | network_0/router_level3_0 | Beginning crossbar traversal for flit 6 from input 6.0 to output 12.0.
4 | network_0/router_level3_0 | Completed VC allocation for VC 0 at input 5 (front: 5).
4 | network_0/router_level3_0 |   Acquiring assigned VC 0 at output 9.
4 | network_0/router_level3_0/buf_5/vc_0 | Changing state from vc_alloc to active.
4 | network_0/router_level3_0 | Completed VC allocation for VC 0 at input 7 (front: 7).
4 | network_0/router_level3_0 |   No output VC allocated.
4 | network_0/router_level3_0 | Completed switch allocation for VC 0 at input 3 (front: 3).
4 | network_0/router_level3_0 |   Scheduling switch connection from input 3.0 to output 9.0.
4 | network_0/router_level3_0 | Updating lookahead routing information for flit 3.
4 | network_0/router_level3_0 | Completed crossbar traversal for flit 1 from input 1.0 to output 10.0.
4 | network_0/router_level3_0 | Buffering flit 1 at output 10.
4 | network_0/router_level3_0 | Completed crossbar traversal for flit 2 from input 2.0 to output 9.0.
4 | network_0/router_level3_0 | Buffering flit 2 at output 9.
4 | network_0/router_level3_0 | Completed crossbar traversal for flit 4 from input 4.0 to output 15.0.
4 | network_0/router_level3_0 | Buffering flit 4 at output 15.
4 | network_0/router_level3_0 | Completed crossbar traversal for flit 6 from input 6.0 to output 12.0.
4 | network_0/router_level3_0 | Buffering flit 6 at output 12.
4 | network_0/router_level3_1 | Beginning crossbar traversal for flit 8 from input 0.0 to output 11.0.
4 | network_0/router_level3_1 | Beginning crossbar traversal for flit 9 from input 1.0 to output 15.0.
4 | network_0/router_level3_1 | Beginning crossbar traversal for flit 10 from input 2.0 to output 9.0.
4 | network_0/router_level3_1 | Completed crossbar traversal for flit 8 from input 0.0 to output 11.0.
4 | network_0/router_level3_1 | Buffering flit 8 at output 11.
4 | network_0/router_level3_1 | Completed crossbar traversal for flit 9 from input 1.0 to output 15.0.
4 | network_0/router_level3_1 | Buffering flit 9 at output 15.
4 | network_0/router_level3_1 | Completed crossbar traversal for flit 10 from input 2.0 to output 9.0.
4 | network_0/router_level3_1 | Buffering flit 10 at output 9.
4 | network_0/router_level3_0 | Sending flit 2 to channel at output 9.
4 | network_0/router_level3_0 | Sending flit 1 to channel at output 10.
4 | network_0/router_level3_0 | Sending flit 6 to channel at output 12.
4 | network_0/router_level3_0 | Sending flit 4 to channel at output 15.
4 | network_0/router_level3_1 | Sending flit 10 to channel at output 9.
4 | network_0/router_level3_1 | Sending flit 8 to channel at output 11.
4 | network_0/router_level3_1 | Sending flit 9 to channel at output 15.
5 | network_0/network_0_fchan_20481 | Beginning channel traversal for flit 2 with delay 1.
5 | network_0/network_0_fchan_20482 | Beginning channel traversal for flit 1 with delay 1.
5 | network_0/network_0_fchan_20484 | Beginning channel traversal for flit 6 with delay 1.
5 | network_0/network_0_fchan_20487 | Beginning channel traversal for flit 4 with delay 1.
5 | network_0/network_0_fchan_20489 | Beginning channel traversal for flit 10 with delay 1.
5 | network_0/network_0_fchan_20491 | Beginning channel traversal for flit 8 with delay 1.
5 | network_0/network_0_fchan_20495 | Beginning channel traversal for flit 9 with delay 1.
5 | network_0/router_level3_0 | Beginning VC allocation for VC 0 at input 7 (front: 7).
5 | network_0/router_level3_0 |   VC 0 at output 8 is in use by VC 2 at input 3 (front flit: 8195).
5 | network_0/router_level3_0 |   Requesting VC 1 at output 8 (in_pri: 0, out_pri: 0).
5 | network_0/router_level3_0 |   Requesting VC 2 at output 8 (in_pri: 0, out_pri: 0).
5 | network_0/router_level3_0 |   Requesting VC 3 at output 8 (in_pri: 0, out_pri: 0).
5 | network_0/router_level3_0/vc_allocator | Input requests = [ 3 -> [ 52@0 54@0 55@0 ]  7 -> [ 52@0 54@0 55@0 ]  10 -> [ 56@0 58@0 59@0 ]  11 -> [ 52@0 54@0 55@0 ]  13 -> [ 56@0 58@0 59@0 ]  15 -> [ 37@0 38@0 39@0 ]  17 -> [ 49@0 50@0 51@0 ]  18 -> [ 33@0 34@0 35@0 ]  19 -> [ 52@0 54@0 55@0 ]  22 -> [ 33@0 34@0 35@0 ]  23 -> [ 52@0 54@0 55@0 ]  26 -> [ 56@0 58@0 59@0 ]  27 -> [ 60@0 61@0 62@0 63@0 ]  28 -> [ 33@0 34@0 35@0 ]  31 -> [ 56@0 58@0 59@0 ]  ], output requests = [ 33 -> [ 18@0 22@0 28@0 ]  34 -> [ 18@0 22@0 28@0 ]  35 -> [ 18@0 22@0 28@0 ]  37 -> [ 15@0 ]  38 -> [ 15@0 ]  39 -> [ 15@0 ]  49 -> [ 17@0 ]  50 -> [ 17@0 ]  51 -> [ 17@0 ]  52 -> [ 3@0 7@0 11@0 19@0 23@0 ]  54 -> [ 3@0 7@0 11@0 19@0 23@0 ]  55 -> [ 3@0 7@0 11@0 19@0 23@0 ]  56 -> [ 10@0 13@0 26@0 31@0 ]  58 -> [ 10@0 13@0 26@0 31@0 ]  59 -> [ 10@0 13@0 26@0 31@0 ]  60 -> [ 27@0 ]  61 -> [ 27@0 ]  62 -> [ 27@0 ]  63 -> [ 27@0 ]  ].
5 | network_0/router_level3_0/vc_allocator | Input grants = [ 10 -> 56  15 -> 37  17 -> 49  18 -> 33  23 -> 52  27 -> 60  ], output grants = [ 33 -> 18  37 -> 15  49 -> 17  52 -> 23  56 -> 10  60 -> 27  ].
5 | network_0/router_level3_0 | VC allocation failed for VC 0 at input 7.
5 | network_0/router_level3_0 | Beginning switch allocation for VC 0 at input 5 (front: 5).
5 | network_0/router_level3_0 |   Requesting output 9.0 (non-spec, pri: 0).
5 | network_0/router_level3_0/sw_allocator | Input requests = [ 0 -> [ 11@0 ]  1 -> [ 14@0 ]  3 -> [ 8@0 ]  5 -> [ 9@0 ]  6 -> [ 13@0 ]  7 -> [ 12@0 ]  ], output requests = [ 8 -> [ 3@0 ]  9 -> [ 5@0 ]  11 -> [ 0@0 ]  12 -> [ 7@0 ]  13 -> [ 6@0 ]  14 -> [ 1@0 ]  ].
5 | network_0/router_level3_0/sw_allocator | Input grants = [ 0 -> 11  1 -> 14  3 -> 8  5 -> 9  6 -> 13  7 -> 12  ], output grants = [ 8 -> 3  9 -> 5  11 -> 0  12 -> 7  13 -> 6  14 -> 1  ].
5 | network_0/router_level3_0 | Assigning output 9.0 to VC 0 at input 5.0.
5 | network_0/router_level3_0 | Beginning crossbar traversal for flit 3 from input 3.0 to output 9.0.
5 | network_0/router_level3_0 | Completed VC allocation for VC 0 at input 7 (front: 7).
5 | network_0/router_level3_0 |   No output VC allocated.
5 | network_0/router_level3_0 | Completed switch allocation for VC 0 at input 5 (front: 5).
5 | network_0/router_level3_0 |   Scheduling switch connection from input 5.0 to output 9.0.
5 | network_0/router_level3_0 | Updating lookahead routing information for flit 5.
5 | network_0/router_level3_0 | Completed crossbar traversal for flit 3 from input 3.0 to output 9.0.
5 | network_0/router_level3_0 | Buffering flit 3 at output 9.
5 | network_0/network_0_fchan_20481 | Completed channel traversal for flit 2.
5 | network_0/network_0_fchan_20482 | Completed channel traversal for flit 1.
5 | network_0/network_0_fchan_20484 | Completed channel traversal for flit 6.
5 | network_0/network_0_fchan_20487 | Completed channel traversal for flit 4.
5 | network_0/network_0_fchan_20489 | Completed channel traversal for flit 10.
5 | network_0/network_0_fchan_20491 | Completed channel traversal for flit 8.
5 | network_0/network_0_fchan_20495 | Completed channel traversal for flit 9.
5 | network_0/router_level3_0 | Sending flit 3 to channel at output 9.
6 | network_0/network_0_fchan_20481 | Beginning channel traversal for flit 3 with delay 1.
6 | network_0/router_level2_1 | Received flit 2 from channel at input 0.
6 | network_0/router_level2_1 | Received flit 10 from channel at input 1.
6 | network_0/router_level2_2 | Received flit 1 from channel at input 0.
6 | network_0/router_level2_3 | Received flit 8 from channel at input 1.
6 | network_0/router_level2_4 | Received flit 6 from channel at input 0.
6 | network_0/router_level2_7 | Received flit 4 from channel at input 0.
6 | network_0/router_level2_7 | Received flit 9 from channel at input 1.
6 | network_0/router_level2_1 | Adding flit 2 to VC 0 at input 0 (state: idle, empty).
6 | network_0/router_level2_1 | Using precomputed lookahead routing information for VC 0 at input 0 (front: 2).
6 | network_0/router_level2_1/buf_0/vc_0 | Changing state from idle to vc_alloc.
6 | network_0/router_level2_1 | Adding flit 10 to VC 0 at input 1 (state: idle, empty).
6 | network_0/router_level2_1 | Using precomputed lookahead routing information for VC 0 at input 1 (front: 10).
6 | network_0/router_level2_1/buf_1/vc_0 | Changing state from idle to vc_alloc.
6 | network_0/router_level2_1 | Beginning VC allocation for VC 0 at input 0 (front: 2).
6 | network_0/router_level2_1 |   Requesting VC 0 at output 13 (in_pri: 0, out_pri: 0).
6 | network_0/router_level2_1 |   Requesting VC 1 at output 13 (in_pri: 0, out_pri: 0).
6 | network_0/router_level2_1 |   Requesting VC 2 at output 13 (in_pri: 0, out_pri: 0).
6 | network_0/router_level2_1 |   Requesting VC 3 at output 13 (in_pri: 0, out_pri: 0).
6 | network_0/router_level2_1 | Beginning VC allocation for VC 0 at input 1 (front: 10).
6 | network_0/router_level2_1 |   Requesting VC 0 at output 14 (in_pri: 0, out_pri: 0).
6 | network_0/router_level2_1 |   Requesting VC 1 at output 14 (in_pri: 0, out_pri: 0).
6 | network_0/router_level2_1 |   Requesting VC 2 at output 14 (in_pri: 0, out_pri: 0).
6 | network_0/router_level2_1 |   Requesting VC 3 at output 14 (in_pri: 0, out_pri: 0).
6 | network_0/router_level2_1/vc_allocator | Input requests = [ 0 -> [ 52@0 53@0 54@0 55@0 ]  4 -> [ 56@0 57@0 58@0 59@0 ]  8 -> [ 40@0 41@0 42@0 43@0 ]  20 -> [ 40@0 41@0 42@0 43@0 ]  28 -> [ 56@0 57@0 58@0 59@0 ]  ], output requests = [ 40 -> [ 8@0 20@0 ]  41 -> [ 8@0 20@0 ]  42 -> [ 8@0 20@0 ]  43 -> [ 8@0 20@0 ]  52 -> [ 0@0 ]  53 -> [ 0@0 ]  54 -> [ 0@0 ]  55 -> [ 0@0 ]  56 -> [ 4@0 28@0 ]  57 -> [ 4@0 28@0 ]  58 -> [ 4@0 28@0 ]  59 -> [ 4@0 28@0 ]  ].
6 | network_0/router_level2_1/vc_allocator | Input grants = [ 0 -> 52  4 -> 56  8 -> 40  ], output grants = [ 40 -> 8  52 -> 0  56 -> 4  ].
6 | network_0/router_level2_1 | Assigning VC 0 at output 13 to VC 0 at input 0.
6 | network_0/router_level2_1 | Assigning VC 0 at output 14 to VC 0 at input 1.
6 | network_0/router_level2_1 | Completed VC allocation for VC 0 at input 0 (front: 2).
6 | network_0/router_level2_1 |   Acquiring assigned VC 0 at output 13.
6 | network_0/router_level2_1/buf_0/vc_0 | Changing state from vc_alloc to active.
6 | network_0/router_level2_1 | Completed VC allocation for VC 0 at input 1 (front: 10).
6 | network_0/router_level2_1 |   Acquiring assigned VC 0 at output 14.
6 | network_0/router_level2_1/buf_1/vc_0 | Changing state from vc_alloc to active.
6 | network_0/router_level2_2 | Adding flit 1 to VC 0 at input 0 (state: idle, empty).
6 | network_0/router_level2_2 | Using precomputed lookahead routing information for VC 0 at input 0 (front: 1).
6 | network_0/router_level2_2/buf_0/vc_0 | Changing state from idle to vc_alloc.
6 | network_0/router_level2_2 | Beginning VC allocation for VC 0 at input 0 (front: 1).
6 | network_0/router_level2_2 |   Requesting VC 0 at output 13 (in_pri: 0, out_pri: 0).
6 | network_0/router_level2_2 |   Requesting VC 1 at output 13 (in_pri: 0, out_pri: 0).
6 | network_0/router_level2_2 |   Requesting VC 2 at output 13 (in_pri: 0, out_pri: 0).
6 | network_0/router_level2_2 |   Requesting VC 3 at output 13 (in_pri: 0, out_pri: 0).
6 | network_0/router_level2_2/vc_allocator | Input requests = [ 0 -> [ 52@0 53@0 54@0 55@0 ]  4 -> [ 60@0 61@0 62@0 63@0 ]  12 -> [ 32@0 33@0 34@0 35@0 ]  20 -> [ 56@0 57@0 58@0 59@0 ]  24 -> [ 60@0 61@0 62@0 63@0 ]  28 -> [ 48@0 49@0 50@0 51@0 ]  ], output requests = [ 32 -> [ 12@0 ]  33 -> [ 12@0 ]  34 -> [ 12@0 ]  35 -> [ 12@0 ]  48 -> [ 28@0 ]  49 -> [ 28@0 ]  50 -> [ 28@0 ]  51 -> [ 28@0 ]  52 -> [ 0@0 ]  53 -> [ 0@0 ]  54 -> [ 0@0 ]  55 -> [ 0@0 ]  56 -> [ 20@0 ]  57 -> [ 20@0 ]  58 -> [ 20@0 ]  59 -> [ 20@0 ]  60 -> [ 4@0 24@0 ]  61 -> [ 4@0 24@0 ]  62 -> [ 4@0 24@0 ]  63 -> [ 4@0 24@0 ]  ].
6 | network_0/router_level2_2/vc_allocator | Input grants = [ 0 -> 52  4 -> 60  12 -> 32  20 -> 56  28 -> 48  ], output grants = [ 32 -> 12  48 -> 28  52 -> 0  56 -> 20  60 -> 4  ].
6 | network_0/router_level2_2 | Assigning VC 0 at output 13 to VC 0 at input 0.
6 | network_0/router_level2_2 | Completed VC allocation for VC 0 at input 0 (front: 1).
6 | network_0/router_level2_2 |   Acquiring assigned VC 0 at output 13.
6 | network_0/router_level2_2/buf_0/vc_0 | Changing state from vc_alloc to active.
6 | network_0/router_level2_3 | Adding flit 8 to VC 0 at input 1 (state: idle, empty).
6 | network_0/router_level2_3 | Using precomputed lookahead routing information for VC 0 at input 1 (front: 8).
6 | network_0/router_level2_3/buf_1/vc_0 | Changing state from idle to vc_alloc.
6 | network_0/router_level2_3 | Beginning VC allocation for VC 0 at input 1 (front: 8).
6 | network_0/router_level2_3 |   Requesting VC 0 at output 11 (in_pri: 0, out_pri: 0).
6 | network_0/router_level2_3 |   Requesting VC 1 at output 11 (in_pri: 0, out_pri: 0).
6 | network_0/router_level2_3 |   Requesting VC 2 at output 11 (in_pri: 0, out_pri: 0).
6 | network_0/router_level2_3 |   Requesting VC 3 at output 11 (in_pri: 0, out_pri: 0).
6 | network_0/router_level2_3/vc_allocator | Input requests = [ 4 -> [ 44@0 45@0 46@0 47@0 ]  8 -> [ 60@0 61@0 62@0 63@0 ]  16 -> [ 52@0 53@0 54@0 55@0 ]  20 -> [ 48@0 49@0 50@0 51@0 ]  24 -> [ 48@0 49@0 50@0 51@0 ]  ], output requests = [ 44 -> [ 4@0 ]  45 -> [ 4@0 ]  46 -> [ 4@0 ]  47 -> [ 4@0 ]  48 -> [ 20@0 24@0 ]  49 -> [ 20@0 24@0 ]  50 -> [ 20@0 24@0 ]  51 -> [ 20@0 24@0 ]  52 -> [ 16@0 ]  53 -> [ 16@0 ]  54 -> [ 16@0 ]  55 -> [ 16@0 ]  60 -> [ 8@0 ]  61 -> [ 8@0 ]  62 -> [ 8@0 ]  63 -> [ 8@0 ]  ].
6 | network_0/router_level2_3/vc_allocator | Input grants = [ 4 -> 44  8 -> 60  16 -> 52  20 -> 48  ], output grants = [ 44 -> 4  48 -> 20  52 -> 16  60 -> 8  ].
6 | network_0/router_level2_3 | Assigning VC 0 at output 11 to VC 0 at input 1.
6 | network_0/router_level2_3 | Completed VC allocation for VC 0 at input 1 (front: 8).
6 | network_0/router_level2_3 |   Acquiring assigned VC 0 at output 11.
6 | network_0/router_level2_3/buf_1/vc_0 | Changing state from vc_alloc to active.
6 | network_0/router_level2_4 | Adding flit 6 to VC 0 at input 0 (state: idle, empty).
6 | network_0/router_level2_4 | Using precomputed lookahead routing information for VC 0 at input 0 (front: 6).
6 | network_0/router_level2_4/buf_0/vc_0 | Changing state from idle to vc_alloc.
6 | network_0/router_level2_4 | Beginning VC allocation for VC 0 at input 0 (front: 6).
6 | network_0/router_level2_4 |   Requesting VC 0 at output 14 (in_pri: 0, out_pri: 0).
6 | network_0/router_level2_4 |   Requesting VC 1 at output 14 (in_pri: 0, out_pri: 0).
6 | network_0/router_level2_4 |   Requesting VC 2 at output 14 (in_pri: 0, out_pri: 0).
6 | network_0/router_level2_4 |   Requesting VC 3 at output 14 (in_pri: 0, out_pri: 0).
6 | network_0/router_level2_4/vc_allocator | Input requests = [ 0 -> [ 56@0 57@0 58@0 59@0 ]  4 -> [ 60@0 61@0 62@0 63@0 ]  8 -> [ 44@0 45@0 46@0 47@0 ]  12 -> [ 40@0 41@0 42@0 43@0 ]  16 -> [ 36@0 37@0 38@0 39@0 ]  20 -> [ 36@0 37@0 38@0 39@0 ]  24 -> [ 32@0 33@0 34@0 35@0 ]  ], output requests = [ 32 -> [ 24@0 ]  33 -> [ 24@0 ]  34 -> [ 24@0 ]  35 -> [ 24@0 ]  36 -> [ 16@0 20@0 ]  37 -> [ 16@0 20@0 ]  38 -> [ 16@0 20@0 ]  39 -> [ 16@0 20@0 ]  40 -> [ 12@0 ]  41 -> [ 12@0 ]  42 -> [ 12@0 ]  43 -> [ 12@0 ]  44 -> [ 8@0 ]  45 -> [ 8@0 ]  46 -> [ 8@0 ]  47 -> [ 8@0 ]  56 -> [ 0@0 ]  57 -> [ 0@0 ]  58 -> [ 0@0 ]  59 -> [ 0@0 ]  60 -> [ 4@0 ]  61 -> [ 4@0 ]  62 -> [ 4@0 ]  63 -> [ 4@0 ]  ].
6 | network_0/router_level2_4/vc_allocator | Input grants = [ 0 -> 56  4 -> 60  8 -> 44  12 -> 40  16 -> 36  24 -> 32  ], output grants = [ 32 -> 24  36 -> 16  40 -> 12  44 -> 8  56 -> 0  60 -> 4  ].
6 | network_0/router_level2_4 | Assigning VC 0 at output 14 to VC 0 at input 0.
6 | network_0/router_level2_4 | Completed VC allocation for VC 0 at input 0 (front: 6).
6 | network_0/router_level2_4 |   Acquiring assigned VC 0 at output 14.
6 | network_0/router_level2_4/buf_0/vc_0 | Changing state from vc_alloc to active.
6 | network_0/router_level2_7 | Adding flit 4 to VC 0 at input 0 (state: idle, empty).
6 | network_0/router_level2_7 | Using precomputed lookahead routing information for VC 0 at input 0 (front: 4).
6 | network_0/router_level2_7/buf_0/vc_0 | Changing state from idle to vc_alloc.
6 | network_0/router_level2_7 | Adding flit 9 to VC 0 at input 1 (state: idle, empty).
6 | network_0/router_level2_7 | Using precomputed lookahead routing information for VC 0 at input 1 (front: 9).
6 | network_0/router_level2_7/buf_1/vc_0 | Changing state from idle to vc_alloc.
6 | network_0/router_level2_7 | Beginning VC allocation for VC 0 at input 0 (front: 4).
6 | network_0/router_level2_7 |   Requesting VC 0 at output 15 (in_pri: 0, out_pri: 0).
6 | network_0/router_level2_7 |   Requesting VC 1 at output 15 (in_pri: 0, out_pri: 0).
6 | network_0/router_level2_7 |   Requesting VC 2 at output 15 (in_pri: 0, out_pri: 0).
6 | network_0/router_level2_7 |   Requesting VC 3 at output 15 (in_pri: 0, out_pri: 0).
6 | network_0/router_level2_7 | Beginning VC allocation for VC 0 at input 1 (front: 9).
6 | network_0/router_level2_7 |   Requesting VC 0 at output 12 (in_pri: 0, out_pri: 0).
6 | network_0/router_level2_7 |   Requesting VC 1 at output 12 (in_pri: 0, out_pri: 0).
6 | network_0/router_level2_7 |   Requesting VC 2 at output 12 (in_pri: 0, out_pri: 0).
6 | network_0/router_level2_7 |   Requesting VC 3 at output 12 (in_pri: 0, out_pri: 0).
6 | network_0/router_level2_7/vc_allocator | Input requests = [ 0 -> [ 60@0 61@0 62@0 63@0 ]  4 -> [ 48@0 49@0 50@0 51@0 ]  12 -> [ 56@0 57@0 58@0 59@0 ]  24 -> [ 60@0 61@0 62@0 63@0 ]  28 -> [ 60@0 61@0 62@0 63@0 ]  ], output requests = [ 48 -> [ 4@0 ]  49 -> [ 4@0 ]  50 -> [ 4@0 ]  51 -> [ 4@0 ]  56 -> [ 12@0 ]  57 -> [ 12@0 ]  58 -> [ 12@0 ]  59 -> [ 12@0 ]  60 -> [ 0@0 24@0 28@0 ]  61 -> [ 0@0 24@0 28@0 ]  62 -> [ 0@0 24@0 28@0 ]  63 -> [ 0@0 24@0 28@0 ]  ].
6 | network_0/router_level2_7/vc_allocator | Input grants = [ 0 -> 60  4 -> 48  12 -> 56  ], output grants = [ 48 -> 4  56 -> 12  60 -> 0  ].
6 | network_0/router_level2_7 | Assigning VC 0 at output 15 to VC 0 at input 0.
6 | network_0/router_level2_7 | Assigning VC 0 at output 12 to VC 0 at input 1.
6 | network_0/router_level2_7 | Completed VC allocation for VC 0 at input 0 (front: 4).
6 | network_0/router_level2_7 |   Acquiring assigned VC 0 at output 15.
6 | network_0/router_level2_7/buf_0/vc_0 | Changing state from vc_alloc to active.
6 | network_0/router_level2_7 | Completed VC allocation for VC 0 at input 1 (front: 9).
6 | network_0/router_level2_7 |   Acquiring assigned VC 0 at output 12.
6 | network_0/router_level2_7/buf_1/vc_0 | Changing state from vc_alloc to active.
6 | network_0/router_level3_0 | Beginning VC allocation for VC 0 at input 7 (front: 7).
6 | network_0/router_level3_0 |   Requesting VC 0 at output 8 (in_pri: 0, out_pri: 0).
6 | network_0/router_level3_0 |   VC 1 at output 8 is in use by VC 2 at input 4 (front flit: 8196).
6 | network_0/router_level3_0 |   Requesting VC 2 at output 8 (in_pri: 0, out_pri: 0).
6 | network_0/router_level3_0 |   Requesting VC 3 at output 8 (in_pri: 0, out_pri: 0).
6 | network_0/router_level3_0/vc_allocator | Input requests = [ 0 -> [ 57@0 58@0 59@0 ]  3 -> [ 53@0 54@0 55@0 ]  4 -> [ 53@0 54@0 55@0 ]  7 -> [ 53@0 54@0 55@0 ]  8 -> [ 36@0 38@0 39@0 ]  11 -> [ 53@0 54@0 55@0 ]  12 -> [ 40@0 41@0 42@0 43@0 ]  13 -> [ 57@0 58@0 59@0 ]  16 -> [ 36@0 38@0 39@0 ]  19 -> [ 53@0 54@0 55@0 ]  20 -> [ 32@0 34@0 35@0 ]  22 -> [ 32@0 34@0 35@0 ]  24 -> [ 53@0 54@0 55@0 ]  26 -> [ 57@0 58@0 59@0 ]  28 -> [ 32@0 34@0 35@0 ]  31 -> [ 57@0 58@0 59@0 ]  ], output requests = [ 32 -> [ 20@0 22@0 28@0 ]  34 -> [ 20@0 22@0 28@0 ]  35 -> [ 20@0 22@0 28@0 ]  36 -> [ 8@0 16@0 ]  38 -> [ 8@0 16@0 ]  39 -> [ 8@0 16@0 ]  40 -> [ 12@0 ]  41 -> [ 12@0 ]  42 -> [ 12@0 ]  43 -> [ 12@0 ]  53 -> [ 3@0 4@0 7@0 11@0 19@0 24@0 ]  54 -> [ 3@0 4@0 7@0 11@0 19@0 24@0 ]  55 -> [ 3@0 4@0 7@0 11@0 19@0 24@0 ]  57 -> [ 0@0 13@0 26@0 31@0 ]  58 -> [ 0@0 13@0 26@0 31@0 ]  59 -> [ 0@0 13@0 26@0 31@0 ]  ].
6 | network_0/router_level3_0/vc_allocator | Input grants = [ 3 -> 53  8 -> 38  12 -> 40  13 -> 57  16 -> 36  20 -> 32  ], output grants = [ 32 -> 20  36 -> 16  38 -> 8  40 -> 12  53 -> 3  57 -> 13  ].
6 | network_0/router_level3_0 | VC allocation failed for VC 0 at input 7.
6 | network_0/router_level3_0 | Beginning crossbar traversal for flit 5 from input 5.0 to output 9.0.
6 | network_0/router_level3_0 | Completed VC allocation for VC 0 at input 7 (front: 7).
6 | network_0/router_level3_0 |   No output VC allocated.
6 | network_0/router_level3_0 | Completed crossbar traversal for flit 5 from input 5.0 to output 9.0.
6 | network_0/router_level3_0 | Buffering flit 5 at output 9.
6 | network_0/network_0_fchan_20481 | Completed channel traversal for flit 3.
6 | network_0/router_level3_0 | Sending flit 5 to channel at output 9.
7 | network_0/network_0_fchan_20481 | Beginning channel traversal for flit 5 with delay 1.
7 | network_0/router_level2_1 | Received flit 3 from channel at input 0.
7 | network_0/router_level2_1 | Adding flit 3 to VC 1 at input 0 (state: idle, empty).
7 | network_0/router_level2_1 | Using precomputed lookahead routing information for VC 1 at input 0 (front: 3).
7 | network_0/router_level2_1/buf_0/vc_1 | Changing state from idle to vc_alloc.
7 | network_0/router_level2_1 | Beginning VC allocation for VC 1 at input 0 (front: 3).
7 | network_0/router_level2_1 |   Requesting VC 0 at output 9 (in_pri: 0, out_pri: 0).
7 | network_0/router_level2_1 |   Requesting VC 1 at output 9 (in_pri: 0, out_pri: 0).
7 | network_0/router_level2_1 |   Requesting VC 2 at output 9 (in_pri: 0, out_pri: 0).
7 | network_0/router_level2_1 |   Requesting VC 3 at output 9 (in_pri: 0, out_pri: 0).
7 | network_0/router_level2_1/vc_allocator | Input requests = [ 1 -> [ 36@0 37@0 38@0 39@0 ]  5 -> [ 48@0 49@0 50@0 51@0 ]  9 -> [ 57@0 58@0 59@0 ]  12 -> [ 57@0 58@0 59@0 ]  16 -> [ 44@0 45@0 46@0 47@0 ]  20 -> [ 41@0 42@0 43@0 ]  21 -> [ 48@0 49@0 50@0 51@0 ]  24 -> [ 41@0 42@0 43@0 ]  28 -> [ 57@0 58@0 59@0 ]  ], output requests = [ 36 -> [ 1@0 ]  37 -> [ 1@0 ]  38 -> [ 1@0 ]  39 -> [ 1@0 ]  41 -> [ 20@0 24@0 ]  42 -> [ 20@0 24@0 ]  43 -> [ 20@0 24@0 ]  44 -> [ 16@0 ]  45 -> [ 16@0 ]  46 -> [ 16@0 ]  47 -> [ 16@0 ]  48 -> [ 5@0 21@0 ]  49 -> [ 5@0 21@0 ]  50 -> [ 5@0 21@0 ]  51 -> [ 5@0 21@0 ]  57 -> [ 9@0 12@0 28@0 ]  58 -> [ 9@0 12@0 28@0 ]  59 -> [ 9@0 12@0 28@0 ]  ].
7 | network_0/router_level2_1/vc_allocator | Input grants = [ 1 -> 36  5 -> 48  9 -> 57  16 -> 44  20 -> 41  ], output grants = [ 36 -> 1  41 -> 20  44 -> 16  48 -> 5  57 -> 9  ].
7 | network_0/router_level2_1 | Assigning VC 0 at output 9 to VC 1 at input 0.
7 | network_0/router_level2_1 | Beginning switch allocation for VC 0 at input 0 (front: 2).
7 | network_0/router_level2_1 |   Requesting output 13.0 (non-spec, pri: 0).
7 | network_0/router_level2_1 | Beginning switch allocation for VC 0 at input 1 (front: 10).
7 | network_0/router_level2_1 |   Requesting output 14.0 (non-spec, pri: 0).
7 | network_0/router_level2_1/sw_allocator | Input requests = [ 0 -> [ 13@0 ]  1 -> [ 14@0 ]  2 -> [ 10@0 ]  ], output requests = [ 10 -> [ 2@0 ]  13 -> [ 0@0 ]  14 -> [ 1@0 ]  ].
7 | network_0/router_level2_1/sw_allocator | Input grants = [ 0 -> 13  1 -> 14  2 -> 10  ], output grants = [ 10 -> 2  13 -> 0  14 -> 1  ].
7 | network_0/router_level2_1 | Assigning output 13.0 to VC 0 at input 0.0.
7 | network_0/router_level2_1 | Assigning output 14.0 to VC 0 at input 1.0.
7 | network_0/router_level2_1 | Completed VC allocation for VC 1 at input 0 (front: 3).
7 | network_0/router_level2_1 |   Acquiring assigned VC 0 at output 9.
7 | network_0/router_level2_1/buf_0/vc_1 | Changing state from vc_alloc to active.
7 | network_0/router_level2_1 | Completed switch allocation for VC 0 at input 0 (front: 2).
7 | network_0/router_level2_1 |   Scheduling switch connection from input 0.0 to output 13.0.
7 | network_0/router_level2_1 | Updating lookahead routing information for flit 2.
7 | network_0/router_level2_1 | Completed switch allocation for VC 0 at input 1 (front: 10).
7 | network_0/router_level2_1 |   Scheduling switch connection from input 1.0 to output 14.0.
7 | network_0/router_level2_1 | Updating lookahead routing information for flit 10.
7 | network_0/router_level2_2 | Beginning switch allocation for VC 0 at input 0 (front: 1).
7 | network_0/router_level2_2 |   Requesting output 13.0 (non-spec, pri: 0).
7 | network_0/router_level2_2/sw_allocator | Input requests = [ 0 -> [ 13@0 ]  1 -> [ 15@0 ]  3 -> [ 8@0 ]  5 -> [ 14@0 ]  7 -> [ 12@0 ]  ], output requests = [ 8 -> [ 3@0 ]  12 -> [ 7@0 ]  13 -> [ 0@0 ]  14 -> [ 5@0 ]  15 -> [ 1@0 ]  ].
7 | network_0/router_level2_2/sw_allocator | Input grants = [ 0 -> 13  1 -> 15  3 -> 8  5 -> 14  7 -> 12  ], output grants = [ 8 -> 3  12 -> 7  13 -> 0  14 -> 5  15 -> 1  ].
7 | network_0/router_level2_2 | Assigning output 13.0 to VC 0 at input 0.0.
7 | network_0/router_level2_2 | Completed switch allocation for VC 0 at input 0 (front: 1).
7 | network_0/router_level2_2 |   Scheduling switch connection from input 0.0 to output 13.0.
7 | network_0/router_level2_2 | Updating lookahead routing information for flit 1.
7 | network_0/router_level2_3 | Beginning switch allocation for VC 0 at input 1 (front: 8).
7 | network_0/router_level2_3 |   Requesting output 11.0 (non-spec, pri: 0).
7 | network_0/router_level2_3/sw_allocator | Input requests = [ 1 -> [ 11@0 ]  2 -> [ 15@0 ]  4 -> [ 13@0 ]  5 -> [ 12@0 ]  ], output requests = [ 11 -> [ 1@0 ]  12 -> [ 5@0 ]  13 -> [ 4@0 ]  15 -> [ 2@0 ]  ].
7 | network_0/router_level2_3/sw_allocator | Input grants = [ 1 -> 11  2 -> 15  4 -> 13  5 -> 12  ], output grants = [ 11 -> 1  12 -> 5  13 -> 4  15 -> 2  ].
7 | network_0/router_level2_3 | Assigning output 11.0 to VC 0 at input 1.0.
7 | network_0/router_level2_3 | Completed switch allocation for VC 0 at input 1 (front: 8).
7 | network_0/router_level2_3 |   Scheduling switch connection from input 1.0 to output 11.0.
7 | network_0/router_level2_3 | Updating lookahead routing information for flit 8.
7 | network_0/router_level2_4 | Beginning switch allocation for VC 0 at input 0 (front: 6).
7 | network_0/router_level2_4 |   Requesting output 14.0 (non-spec, pri: 0).
7 | network_0/router_level2_4/sw_allocator | Input requests = [ 0 -> [ 14@0 ]  1 -> [ 15@0 ]  2 -> [ 11@0 ]  3 -> [ 10@0 ]  4 -> [ 9@0 ]  6 -> [ 8@0 ]  ], output requests = [ 8 -> [ 6@0 ]  9 -> [ 4@0 ]  10 -> [ 3@0 ]  11 -> [ 2@0 ]  14 -> [ 0@0 ]  15 -> [ 1@0 ]  ].
7 | network_0/router_level2_4/sw_allocator | Input grants = [ 0 -> 14  1 -> 15  2 -> 11  3 -> 10  4 -> 9  6 -> 8  ], output grants = [ 8 -> 6  9 -> 4  10 -> 3  11 -> 2  14 -> 0  15 -> 1  ].
7 | network_0/router_level2_4 | Assigning output 14.0 to VC 0 at input 0.0.
7 | network_0/router_level2_4 | Completed switch allocation for VC 0 at input 0 (front: 6).
7 | network_0/router_level2_4 |   Scheduling switch connection from input 0.0 to output 14.0.
7 | network_0/router_level2_4 | Updating lookahead routing information for flit 6.
7 | network_0/router_level2_7 | Beginning switch allocation for VC 0 at input 0 (front: 4).
7 | network_0/router_level2_7 |   Requesting output 15.0 (non-spec, pri: 0).
7 | network_0/router_level2_7 | Beginning switch allocation for VC 0 at input 1 (front: 9).
7 | network_0/router_level2_7 |   Requesting output 12.0 (non-spec, pri: 0).
7 | network_0/router_level2_7/sw_allocator | Input requests = [ 0 -> [ 15@0 ]  1 -> [ 12@0 ]  3 -> [ 14@0 ]  ], output requests = [ 12 -> [ 1@0 ]  14 -> [ 3@0 ]  15 -> [ 0@0 ]  ].
7 | network_0/router_level2_7/sw_allocator | Input grants = [ 0 -> 15  1 -> 12  3 -> 14  ], output grants = [ 12 -> 1  14 -> 3  15 -> 0  ].
7 | network_0/router_level2_7 | Assigning output 15.0 to VC 0 at input 0.0.
7 | network_0/router_level2_7 | Assigning output 12.0 to VC 0 at input 1.0.
7 | network_0/router_level2_7 | Completed switch allocation for VC 0 at input 0 (front: 4).
7 | network_0/router_level2_7 |   Scheduling switch connection from input 0.0 to output 15.0.
7 | network_0/router_level2_7 | Updating lookahead routing information for flit 4.
7 | network_0/router_level2_7 | Completed switch allocation for VC 0 at input 1 (front: 9).
7 | network_0/router_level2_7 |   Scheduling switch connection from input 1.0 to output 12.0.
7 | network_0/router_level2_7 | Updating lookahead routing information for flit 9.
7 | network_0/router_level3_0 | Beginning VC allocation for VC 0 at input 7 (front: 7).
7 | network_0/router_level3_0 |   VC 0 at output 8 is in use by VC 0 at input 5 (front flit: 16389).
7 | network_0/router_level3_0 |   Requesting VC 1 at output 8 (in_pri: 0, out_pri: 0).
7 | network_0/router_level3_0 |   Requesting VC 2 at output 8 (in_pri: 0, out_pri: 0).
7 | network_0/router_level3_0 |   Requesting VC 3 at output 8 (in_pri: 0, out_pri: 0).
7 | network_0/router_level3_0/vc_allocator | Input requests = [ 0 -> [ 56@0 58@0 59@0 ]  1 -> [ 37@0 39@0 ]  4 -> [ 52@0 54@0 55@0 ]  5 -> [ 60@0 61@0 62@0 63@0 ]  7 -> [ 52@0 54@0 55@0 ]  9 -> [ 44@0 45@0 46@0 47@0 ]  11 -> [ 52@0 54@0 55@0 ]  19 -> [ 52@0 54@0 55@0 ]  21 -> [ 44@0 45@0 46@0 47@0 ]  22 -> [ 33@0 34@0 35@0 ]  24 -> [ 52@0 54@0 55@0 ]  25 -> [ 52@0 54@0 55@0 ]  26 -> [ 56@0 58@0 59@0 ]  28 -> [ 33@0 34@0 35@0 ]  29 -> [ 48@0 50@0 51@0 ]  31 -> [ 56@0 58@0 59@0 ]  ], output requests = [ 33 -> [ 22@0 28@0 ]  34 -> [ 22@0 28@0 ]  35 -> [ 22@0 28@0 ]  37 -> [ 1@0 ]  39 -> [ 1@0 ]  44 -> [ 9@0 21@0 ]  45 -> [ 9@0 21@0 ]  46 -> [ 9@0 21@0 ]  47 -> [ 9@0 21@0 ]  48 -> [ 29@0 ]  50 -> [ 29@0 ]  51 -> [ 29@0 ]  52 -> [ 4@0 7@0 11@0 19@0 24@0 25@0 ]  54 -> [ 4@0 7@0 11@0 19@0 24@0 25@0 ]  55 -> [ 4@0 7@0 11@0 19@0 24@0 25@0 ]  56 -> [ 0@0 26@0 31@0 ]  58 -> [ 0@0 26@0 31@0 ]  59 -> [ 0@0 26@0 31@0 ]  60 -> [ 5@0 ]  61 -> [ 5@0 ]  62 -> [ 5@0 ]  63 -> [ 5@0 ]  ].
7 | network_0/router_level3_0/vc_allocator | Input grants = [ 1 -> 37  5 -> 60  9 -> 44  22 -> 33  24 -> 52  25 -> 54  26 -> 56  29 -> 48  ], output grants = [ 33 -> 22  37 -> 1  44 -> 9  48 -> 29  52 -> 24  54 -> 25  56 -> 26  60 -> 5  ].
7 | network_0/router_level3_0 | VC allocation failed for VC 0 at input 7.
7 | network_0/router_level3_0 | Completed VC allocation for VC 0 at input 7 (front: 7).
7 | network_0/router_level3_0 |   No output VC allocated.
7 | network_0/network_0_fchan_20481 | Completed channel traversal for flit 5.
8 | network_0/router_level2_1 | Received flit 5 from channel at input 0.
8 | network_0/router_level2_1 | Adding flit 5 to VC 0 at input 0 (state: idle, empty).
8 | network_0/router_level2_1 | Using precomputed lookahead routing information for VC 0 at input 0 (front: 5).
8 | network_0/router_level2_1/buf_0/vc_0 | Changing state from idle to vc_alloc.
8 | network_0/router_level2_1 | Beginning VC allocation for VC 0 at input 0 (front: 5).
8 | network_0/router_level2_1 |   Requesting VC 0 at output 13 (in_pri: 0, out_pri: 0).
8 | network_0/router_level2_1 |   Requesting VC 1 at output 13 (in_pri: 0, out_pri: 0).
8 | network_0/router_level2_1 |   Requesting VC 2 at output 13 (in_pri: 0, out_pri: 0).
8 | network_0/router_level2_1 |   Requesting VC 3 at output 13 (in_pri: 0, out_pri: 0).
8 | network_0/router_level2_1/vc_allocator | Input requests = [ 0 -> [ 52@0 53@0 54@0 55@0 ]  4 -> [ 60@0 61@0 62@0 63@0 ]  8 -> [ 49@0 50@0 51@0 ]  12 -> [ 56@0 58@0 59@0 ]  13 -> [ 52@0 53@0 54@0 55@0 ]  17 -> [ 40@0 42@0 43@0 ]  21 -> [ 49@0 50@0 51@0 ]  24 -> [ 40@0 42@0 43@0 ]  25 -> [ 40@0 42@0 43@0 ]  28 -> [ 56@0 58@0 59@0 ]  ], output requests = [ 40 -> [ 17@0 24@0 25@0 ]  42 -> [ 17@0 24@0 25@0 ]  43 -> [ 17@0 24@0 25@0 ]  49 -> [ 8@0 21@0 ]  50 -> [ 8@0 21@0 ]  51 -> [ 8@0 21@0 ]  52 -> [ 0@0 13@0 ]  53 -> [ 0@0 13@0 ]  54 -> [ 0@0 13@0 ]  55 -> [ 0@0 13@0 ]  56 -> [ 12@0 28@0 ]  58 -> [ 12@0 28@0 ]  59 -> [ 12@0 28@0 ]  60 -> [ 4@0 ]  61 -> [ 4@0 ]  62 -> [ 4@0 ]  63 -> [ 4@0 ]  ].
8 | network_0/router_level2_1/vc_allocator | Input grants = [ 0 -> 53  4 -> 60  8 -> 49  12 -> 56  13 -> 52  17 -> 40  ], output grants = [ 40 -> 17  49 -> 8  52 -> 13  53 -> 0  56 -> 12  60 -> 4  ].
8 | network_0/router_level2_1 | Assigning VC 1 at output 13 to VC 0 at input 0.
8 | network_0/router_level2_1 | Beginning switch allocation for VC 1 at input 0 (front: 3).
8 | network_0/router_level2_1 |   Requesting output 9.0 (non-spec, pri: 0).
8 | network_0/router_level2_1/sw_allocator | Input requests = [ 0 -> [ 9@0 ]  1 -> [ 12@0 ]  2 -> [ 14@0 ]  4 -> [ 11@0 ]  5 -> [ 10@0 ]  ], output requests = [ 9 -> [ 0@0 ]  10 -> [ 5@0 ]  11 -> [ 4@0 ]  12 -> [ 1@0 ]  14 -> [ 2@0 ]  ].
8 | network_0/router_level2_1/sw_allocator | Input grants = [ 0 -> 9  1 -> 12  2 -> 14  4 -> 11  5 -> 10  ], output grants = [ 9 -> 0  10 -> 5  11 -> 4  12 -> 1  14 -> 2  ].
8 | network_0/router_level2_1 | Assigning output 9.0 to VC 1 at input 0.0.
8 | network_0/router_level2_1 | Beginning crossbar traversal for flit 2 from input 0.0 to output 13.0.
8 | network_0/router_level2_1 | Beginning crossbar traversal for flit 10 from input 1.0 to output 14.0.
8 | network_0/router_level2_1 | Completed VC allocation for VC 0 at input 0 (front: 5).
8 | network_0/router_level2_1 |   Acquiring assigned VC 1 at output 13.
8 | network_0/router_level2_1/buf_0/vc_0 | Changing state from vc_alloc to active.
8 | network_0/router_level2_1 | Completed switch allocation for VC 1 at input 0 (front: 3).
8 | network_0/router_level2_1 |   Scheduling switch connection from input 0.0 to output 9.0.
8 | network_0/router_level2_1 | Updating lookahead routing information for flit 3.
8 | network_0/router_level2_1 | Completed crossbar traversal for flit 2 from input 0.0 to output 13.0.
8 | network_0/router_level2_1 | Buffering flit 2 at output 13.
8 | network_0/router_level2_1 | Completed crossbar traversal for flit 10 from input 1.0 to output 14.0.
8 | network_0/router_level2_1 | Buffering flit 10 at output 14.
8 | network_0/router_level2_2 | Beginning crossbar traversal for flit 1 from input 0.0 to output 13.0.
8 | network_0/router_level2_2 | Completed crossbar traversal for flit 1 from input 0.0 to output 13.0.
8 | network_0/router_level2_2 | Buffering flit 1 at output 13.
8 | network_0/router_level2_3 | Beginning crossbar traversal for flit 8 from input 1.0 to output 11.0.
8 | network_0/router_level2_3 | Completed crossbar traversal for flit 8 from input 1.0 to output 11.0.
8 | network_0/router_level2_3 | Buffering flit 8 at output 11.
8 | network_0/router_level2_4 | Beginning crossbar traversal for flit 6 from input 0.0 to output 14.0.
8 | network_0/router_level2_4 | Completed crossbar traversal for flit 6 from input 0.0 to output 14.0.
8 | network_0/router_level2_4 | Buffering flit 6 at output 14.
8 | network_0/router_level2_7 | Beginning crossbar traversal for flit 4 from input 0.0 to output 15.0.
8 | network_0/router_level2_7 | Beginning crossbar traversal for flit 9 from input 1.0 to output 12.0.
8 | network_0/router_level2_7 | Completed crossbar traversal for flit 4 from input 0.0 to output 15.0.
8 | network_0/router_level2_7 | Buffering flit 4 at output 15.
8 | network_0/router_level2_7 | Completed crossbar traversal for flit 9 from input 1.0 to output 12.0.
8 | network_0/router_level2_7 | Buffering flit 9 at output 12.
8 | network_0/router_level3_0 | Beginning VC allocation for VC 0 at input 7 (front: 7).
8 | network_0/router_level3_0 |   Requesting VC 0 at output 8 (in_pri: 0, out_pri: 0).
8 | network_0/router_level3_0 |   VC 1 at output 8 is in use by VC 2 at input 5 (front flit: 8197).
8 | network_0/router_level3_0 |   Requesting VC 2 at output 8 (in_pri: 0, out_pri: 0).
8 | network_0/router_level3_0 |   Requesting VC 3 at output 8 (in_pri: 0, out_pri: 0).
8 | network_0/router_level3_0/vc_allocator | Input requests = [ 0 -> [ 58@0 59@0 ]  2 -> [ 61@0 62@0 63@0 ]  4 -> [ 53@0 55@0 ]  6 -> [ 61@0 62@0 63@0 ]  7 -> [ 53@0 55@0 ]  10 -> [ 61@0 62@0 63@0 ]  11 -> [ 53@0 55@0 ]  14 -> [ 36@0 39@0 ]  18 -> [ 53@0 55@0 ]  19 -> [ 53@0 55@0 ]  21 -> [ 45@0 46@0 47@0 ]  28 -> [ 32@0 34@0 35@0 ]  30 -> [ 50@0 51@0 ]  31 -> [ 58@0 59@0 ]  ], output requests = [ 32 -> [ 28@0 ]  34 -> [ 28@0 ]  35 -> [ 28@0 ]  36 -> [ 14@0 ]  39 -> [ 14@0 ]  45 -> [ 21@0 ]  46 -> [ 21@0 ]  47 -> [ 21@0 ]  50 -> [ 30@0 ]  51 -> [ 30@0 ]  53 -> [ 4@0 7@0 11@0 18@0 19@0 ]  55 -> [ 4@0 7@0 11@0 18@0 19@0 ]  58 -> [ 0@0 31@0 ]  59 -> [ 0@0 31@0 ]  61 -> [ 2@0 6@0 10@0 ]  62 -> [ 2@0 6@0 10@0 ]  63 -> [ 2@0 6@0 10@0 ]  ].
8 | network_0/router_level3_0/vc_allocator | Input grants = [ 0 -> 58  2 -> 61  4 -> 53  14 -> 36  21 -> 45  28 -> 32  30 -> 50  ], output grants = [ 32 -> 28  36 -> 14  45 -> 21  50 -> 30  53 -> 4  58 -> 0  61 -> 2  ].
8 | network_0/router_level3_0 | Assigning VC 0 at output 8 to VC 0 at input 7.
8 | network_0/router_level3_0 | Completed VC allocation for VC 0 at input 7 (front: 7).
8 | network_0/router_level3_0 |   Acquiring assigned VC 0 at output 8.
8 | network_0/router_level3_0/buf_7/vc_0 | Changing state from vc_alloc to active.
8 | network_0/router_level2_1 | Sending flit 2 to channel at output 13.
8 | network_0/router_level2_1 | Sending flit 10 to channel at output 14.
8 | network_0/router_level2_2 | Sending flit 1 to channel at output 13.
8 | network_0/router_level2_3 | Sending flit 8 to channel at output 11.
8 | network_0/router_level2_4 | Sending flit 6 to channel at output 14.
8 | network_0/router_level2_7 | Sending flit 9 to channel at output 12.
8 | network_0/router_level2_7 | Sending flit 4 to channel at output 15.
9 | network_0/network_0_fchan_12301 | Beginning channel traversal for flit 2 with delay 1.
9 | network_0/network_0_fchan_12302 | Beginning channel traversal for flit 10 with delay 1.
9 | network_0/network_0_fchan_12309 | Beginning channel traversal for flit 1 with delay 1.
9 | network_0/network_0_fchan_12315 | Beginning channel traversal for flit 8 with delay 1.
9 | network_0/network_0_fchan_12326 | Beginning channel traversal for flit 6 with delay 1.
9 | network_0/network_0_fchan_12348 | Beginning channel traversal for flit 9 with delay 1.
9 | network_0/network_0_fchan_12351 | Beginning channel traversal for flit 4 with delay 1.
9 | network_0/router_level2_1 | Beginning switch allocation for VC 0 at input 0 (front: 5).
9 | network_0/router_level2_1 |   Requesting output 13.0 (non-spec, pri: 0).
9 | network_0/router_level2_1/sw_allocator | Input requests = [ 0 -> [ 13@0 ]  1 -> [ 15@0 ]  2 -> [ 12@0 ]  3 -> [ 13@0 14@0 ]  4 -> [ 10@0 ]  ], output requests = [ 10 -> [ 4@0 ]  12 -> [ 2@0 ]  13 -> [ 0@0 3@0 ]  14 -> [ 3@0 ]  15 -> [ 1@0 ]  ].
9 | network_0/router_level2_1/sw_allocator | Input grants = [ 1 -> 15  2 -> 12  3 -> 13  4 -> 10  ], output grants = [ 10 -> 4  12 -> 2  13 -> 3  15 -> 1  ].
9 | network_0/router_level2_1 | Switch allocation failed for VC 0 at input 0: No output granted.
9 | network_0/router_level2_1 | Beginning crossbar traversal for flit 3 from input 0.0 to output 9.0.
9 | network_0/router_level2_1 | Completed switch allocation for VC 0 at input 0 (front: 5).
9 | network_0/router_level2_1 |   No output port allocated.
9 | network_0/router_level2_1 | Completed crossbar traversal for flit 3 from input 0.0 to output 9.0.
9 | network_0/router_level2_1 | Buffering flit 3 at output 9.
9 | network_0/router_level3_0 | Beginning switch allocation for VC 0 at input 7 (front: 7).
9 | network_0/router_level3_0 |   Requesting output 8.0 (non-spec, pri: 0).
9 | network_0/router_level3_0/sw_allocator | Input requests = [ 0 -> [ 14@0 15@0 ]  1 -> [ 13@0 ]  2 -> [ 9@0 11@0 ]  3 -> [ 9@0 ]  5 -> [ 11@0 ]  6 -> [ 13@0 14@0 ]  7 -> [ 8@0 12@0 ]  ], output requests = [ 8 -> [ 7@0 ]  9 -> [ 2@0 3@0 ]  11 -> [ 2@0 5@0 ]  12 -> [ 7@0 ]  13 -> [ 1@0 6@0 ]  14 -> [ 0@0 6@0 ]  15 -> [ 0@0 ]  ].
9 | network_0/router_level3_0/sw_allocator | Input grants = [ 1 -> 13  2 -> 9  5 -> 11  6 -> 14  7 -> 8  ], output grants = [ 8 -> 7  9 -> 2  11 -> 5  13 -> 1  14 -> 6  ].
9 | network_0/router_level3_0 | Assigning output 8.0 to VC 0 at input 7.0.
9 | network_0/router_level3_0 | Completed switch allocation for VC 0 at input 7 (front: 7).
9 | network_0/router_level3_0 |   Scheduling switch connection from input 7.0 to output 8.0.
9 | network_0/router_level3_0 | Updating lookahead routing information for flit 7.
9 | network_0/network_0_fchan_12301 | Completed channel traversal for flit 2.
9 | network_0/network_0_fchan_12302 | Completed channel traversal for flit 10.
9 | network_0/network_0_fchan_12309 | Completed channel traversal for flit 1.
9 | network_0/network_0_fchan_12315 | Completed channel traversal for flit 8.
9 | network_0/network_0_fchan_12326 | Completed channel traversal for flit 6.
9 | network_0/network_0_fchan_12348 | Completed channel traversal for flit 9.
9 | network_0/network_0_fchan_12351 | Completed channel traversal for flit 4.
9 | network_0/router_level2_1 | Sending flit 3 to channel at output 9.
10 | network_0/network_0_fchan_12297 | Beginning channel traversal for flit 3 with delay 1.
10 | network_0/router_level1_27 | Received flit 8 from channel at input 0.
10 | network_0/router_level1_39 | Received flit 9 from channel at input 0.
10 | network_0/router_level1_41 | Received flit 2 from channel at input 0.
10 | network_0/router_level1_42 | Received flit 1 from channel at input 0.
10 | network_0/router_level1_49 | Received flit 10 from channel at input 0.
10 | network_0/router_level1_52 | Received flit 6 from channel at input 0.
10 | network_0/router_level1_63 | Received flit 4 from channel at input 0.
10 | network_0/router_level1_27 | Adding flit 8 to VC 0 at input 0 (state: idle, empty).
10 | network_0/router_level1_27 | Using precomputed lookahead routing information for VC 0 at input 0 (front: 8).
10 | network_0/router_level1_27/buf_0/vc_0 | Changing state from idle to vc_alloc.
10 | network_0/router_level1_27 | Beginning VC allocation for VC 0 at input 0 (front: 8).
10 | network_0/router_level1_27 |   Requesting VC 0 at output 9 (in_pri: 0, out_pri: 0).
10 | network_0/router_level1_27 |   Requesting VC 1 at output 9 (in_pri: 0, out_pri: 0).
10 | network_0/router_level1_27 |   Requesting VC 2 at output 9 (in_pri: 0, out_pri: 0).
10 | network_0/router_level1_27 |   Requesting VC 3 at output 9 (in_pri: 0, out_pri: 0).
10 | network_0/router_level1_27/vc_allocator | Input requests = [ 0 -> [ 36@0 37@0 38@0 39@0 ]  4 -> [ 40@0 41@0 42@0 43@0 ]  8 -> [ 40@0 41@0 42@0 43@0 ]  12 -> [ 48@0 49@0 50@0 51@0 ]  16 -> [ 36@0 37@0 38@0 39@0 ]  24 -> [ 44@0 45@0 46@0 47@0 ]  ], output requests = [ 36 -> [ 0@0 16@0 ]  37 -> [ 0@0 16@0 ]  38 -> [ 0@0 16@0 ]  39 -> [ 0@0 16@0 ]  40 -> [ 4@0 8@0 ]  41 -> [ 4@0 8@0 ]  42 -> [ 4@0 8@0 ]  43 -> [ 4@0 8@0 ]  44 -> [ 24@0 ]  45 -> [ 24@0 ]  46 -> [ 24@0 ]  47 -> [ 24@0 ]  48 -> [ 12@0 ]  49 -> [ 12@0 ]  50 -> [ 12@0 ]  51 -> [ 12@0 ]  ].
10 | network_0/router_level1_27/vc_allocator | Input grants = [ 0 -> 36  4 -> 40  12 -> 48  24 -> 44  ], output grants = [ 36 -> 0  40 -> 4  44 -> 24  48 -> 12  ].
10 | network_0/router_level1_27 | Assigning VC 0 at output 9 to VC 0 at input 0.
10 | network_0/router_level1_27 | Completed VC allocation for VC 0 at input 0 (front: 8).
10 | network_0/router_level1_27 |   Acquiring assigned VC 0 at output 9.
10 | network_0/router_level1_27/buf_0/vc_0 | Changing state from vc_alloc to active.
10 | network_0/router_level1_39 | Adding flit 9 to VC 0 at input 0 (state: idle, empty).
10 | network_0/router_level1_39 | Using precomputed lookahead routing information for VC 0 at input 0 (front: 9).
10 | network_0/router_level1_39/buf_0/vc_0 | Changing state from idle to vc_alloc.
10 | network_0/router_level1_39 | Beginning VC allocation for VC 0 at input 0 (front: 9).
10 | network_0/router_level1_39 |   Requesting VC 0 at output 11 (in_pri: 0, out_pri: 0).
10 | network_0/router_level1_39 |   Requesting VC 1 at output 11 (in_pri: 0, out_pri: 0).
10 | network_0/router_level1_39 |   Requesting VC 2 at output 11 (in_pri: 0, out_pri: 0).
10 | network_0/router_level1_39 |   Requesting VC 3 at output 11 (in_pri: 0, out_pri: 0).
10 | network_0/router_level1_39/vc_allocator | Input requests = [ 0 -> [ 44@0 45@0 46@0 47@0 ]  4 -> [ 48@0 49@0 50@0 51@0 ]  12 -> [ 56@0 57@0 58@0 59@0 ]  16 -> [ 36@0 37@0 38@0 39@0 ]  24 -> [ 40@0 41@0 42@0 43@0 ]  28 -> [ 52@0 53@0 54@0 55@0 ]  ], output requests = [ 36 -> [ 16@0 ]  37 -> [ 16@0 ]  38 -> [ 16@0 ]  39 -> [ 16@0 ]  40 -> [ 24@0 ]  41 -> [ 24@0 ]  42 -> [ 24@0 ]  43 -> [ 24@0 ]  44 -> [ 0@0 ]  45 -> [ 0@0 ]  46 -> [ 0@0 ]  47 -> [ 0@0 ]  48 -> [ 4@0 ]  49 -> [ 4@0 ]  50 -> [ 4@0 ]  51 -> [ 4@0 ]  52 -> [ 28@0 ]  53 -> [ 28@0 ]  54 -> [ 28@0 ]  55 -> [ 28@0 ]  56 -> [ 12@0 ]  57 -> [ 12@0 ]  58 -> [ 12@0 ]  59 -> [ 12@0 ]  ].
10 | network_0/router_level1_39/vc_allocator | Input grants = [ 0 -> 44  4 -> 48  12 -> 56  16 -> 36  24 -> 40  28 -> 52  ], output grants = [ 36 -> 16  40 -> 24  44 -> 0  48 -> 4  52 -> 28  56 -> 12  ].
10 | network_0/router_level1_39 | Assigning VC 0 at output 11 to VC 0 at input 0.
10 | network_0/router_level1_39 | Completed VC allocation for VC 0 at input 0 (front: 9).
10 | network_0/router_level1_39 |   Acquiring assigned VC 0 at output 11.
10 | network_0/router_level1_39/buf_0/vc_0 | Changing state from vc_alloc to active.
10 | network_0/router_level1_41 | Adding flit 2 to VC 0 at input 0 (state: idle, empty).
10 | network_0/router_level1_41 | Using precomputed lookahead routing information for VC 0 at input 0 (front: 2).
10 | network_0/router_level1_41/buf_0/vc_0 | Changing state from idle to vc_alloc.
10 | network_0/router_level1_41 | Beginning VC allocation for VC 0 at input 0 (front: 2).
10 | network_0/router_level1_41 |   Requesting VC 0 at output 10 (in_pri: 0, out_pri: 0).
10 | network_0/router_level1_41 |   Requesting VC 1 at output 10 (in_pri: 0, out_pri: 0).
10 | network_0/router_level1_41 |   Requesting VC 2 at output 10 (in_pri: 0, out_pri: 0).
10 | network_0/router_level1_41 |   Requesting VC 3 at output 10 (in_pri: 0, out_pri: 0).
10 | network_0/router_level1_41/vc_allocator | Input requests = [ 0 -> [ 40@0 41@0 42@0 43@0 ]  4 -> [ 40@0 41@0 42@0 43@0 ]  16 -> [ 40@0 41@0 42@0 43@0 ]  20 -> [ 60@0 61@0 62@0 63@0 ]  28 -> [ 60@0 61@0 62@0 63@0 ]  ], output requests = [ 40 -> [ 0@0 4@0 16@0 ]  41 -> [ 0@0 4@0 16@0 ]  42 -> [ 0@0 4@0 16@0 ]  43 -> [ 0@0 4@0 16@0 ]  60 -> [ 20@0 28@0 ]  61 -> [ 20@0 28@0 ]  62 -> [ 20@0 28@0 ]  63 -> [ 20@0 28@0 ]  ].
10 | network_0/router_level1_41/vc_allocator | Input grants = [ 0 -> 40  20 -> 60  ], output grants = [ 40 -> 0  60 -> 20  ].
10 | network_0/router_level1_41 | Assigning VC 0 at output 10 to VC 0 at input 0.
10 | network_0/router_level1_41 | Completed VC allocation for VC 0 at input 0 (front: 2).
10 | network_0/router_level1_41 |   Acquiring assigned VC 0 at output 10.
10 | network_0/router_level1_41/buf_0/vc_0 | Changing state from vc_alloc to active.
10 | network_0/router_level1_42 | Adding flit 1 to VC 0 at input 0 (state: idle, empty).
10 | network_0/router_level1_42 | Using precomputed lookahead routing information for VC 0 at input 0 (front: 1).
10 | network_0/router_level1_42/buf_0/vc_0 | Changing state from idle to vc_alloc.
10 | network_0/router_level1_42 | Beginning VC allocation for VC 0 at input 0 (front: 1).
10 | network_0/router_level1_42 |   Requesting VC 0 at output 8 (in_pri: 0, out_pri: 0).
10 | network_0/router_level1_42 |   Requesting VC 1 at output 8 (in_pri: 0, out_pri: 0).
10 | network_0/router_level1_42 |   Requesting VC 2 at output 8 (in_pri: 0, out_pri: 0).
10 | network_0/router_level1_42 |   Requesting VC 3 at output 8 (in_pri: 0, out_pri: 0).
10 | network_0/router_level1_42/vc_allocator | Input requests = [ 0 -> [ 32@0 33@0 34@0 35@0 ]  4 -> [ 48@0 49@0 50@0 51@0 ]  20 -> [ 44@0 45@0 46@0 47@0 ]  ], output requests = [ 32 -> [ 0@0 ]  33 -> [ 0@0 ]  34 -> [ 0@0 ]  35 -> [ 0@0 ]  44 -> [ 20@0 ]  45 -> [ 20@0 ]  46 -> [ 20@0 ]  47 -> [ 20@0 ]  48 -> [ 4@0 ]  49 -> [ 4@0 ]  50 -> [ 4@0 ]  51 -> [ 4@0 ]  ].
10 | network_0/router_level1_42/vc_allocator | Input grants = [ 0 -> 32  4 -> 48  20 -> 44  ], output grants = [ 32 -> 0  44 -> 20  48 -> 4  ].
10 | network_0/router_level1_42 | Assigning VC 0 at output 8 to VC 0 at input 0.
10 | network_0/router_level1_42 | Completed VC allocation for VC 0 at input 0 (front: 1).
10 | network_0/router_level1_42 |   Acquiring assigned VC 0 at output 8.
10 | network_0/router_level1_42/buf_0/vc_0 | Changing state from vc_alloc to active.
10 | network_0/router_level1_49 | Adding flit 10 to VC 0 at input 0 (state: idle, empty).
10 | network_0/router_level1_49 | Using precomputed lookahead routing information for VC 0 at input 0 (front: 10).
10 | network_0/router_level1_49/buf_0/vc_0 | Changing state from idle to vc_alloc.
10 | network_0/router_level1_49 | Beginning VC allocation for VC 0 at input 0 (front: 10).
10 | network_0/router_level1_49 |   Requesting VC 0 at output 8 (in_pri: 0, out_pri: 0).
10 | network_0/router_level1_49 |   Requesting VC 1 at output 8 (in_pri: 0, out_pri: 0).
10 | network_0/router_level1_49 |   Requesting VC 2 at output 8 (in_pri: 0, out_pri: 0).
10 | network_0/router_level1_49 |   Requesting VC 3 at output 8 (in_pri: 0, out_pri: 0).
10 | network_0/router_level1_49/vc_allocator | Input requests = [ 0 -> [ 32@0 33@0 34@0 35@0 ]  12 -> [ 32@0 33@0 34@0 35@0 ]  16 -> [ 36@0 37@0 38@0 39@0 ]  20 -> [ 44@0 45@0 46@0 47@0 ]  ], output requests = [ 32 -> [ 0@0 12@0 ]  33 -> [ 0@0 12@0 ]  34 -> [ 0@0 12@0 ]  35 -> [ 0@0 12@0 ]  36 -> [ 16@0 ]  37 -> [ 16@0 ]  38 -> [ 16@0 ]  39 -> [ 16@0 ]  44 -> [ 20@0 ]  45 -> [ 20@0 ]  46 -> [ 20@0 ]  47 -> [ 20@0 ]  ].
10 | network_0/router_level1_49/vc_allocator | Input grants = [ 0 -> 32  16 -> 36  20 -> 44  ], output grants = [ 32 -> 0  36 -> 16  44 -> 20  ].
10 | network_0/router_level1_49 | Assigning VC 0 at output 8 to VC 0 at input 0.
10 | network_0/router_level1_49 | Completed VC allocation for VC 0 at input 0 (front: 10).
10 | network_0/router_level1_49 |   Acquiring assigned VC 0 at output 8.
[...]
29 | network_0/router_level3_511 | Sending flit 3 to channel at output 4.
30 | node4085 | Ejecting flit 10 (packet 10) from VC 0.
30 | node4086 | Ejecting flit 9 (packet 9) from VC 0.
30 | node4087 | Ejecting flit 8 (packet 8) from VC 0.
30 | node4089 | Ejecting flit 6 (packet 6) from VC 0.
30 | node4091 | Ejecting flit 4 (packet 4) from VC 0.
30 | node4093 | Ejecting flit 2 (packet 2) from VC 0.
30 | node4094 | Ejecting flit 1 (packet 1) from VC 0.
30 | network_0/network_0_fchan_egress4092 | Beginning channel traversal for flit 3 with delay 1.
30 | network_0/network_0_fchan_1671 | Beginning channel traversal for flit 7 with delay 1.
30 | node4085 | Injecting credit for VC 0 into subnet 0.
30 | node4085 | Retiring flit 10 (packet 10, src = 10, dest = 4085, hops = 7, flat = 30).
30 | node4085 | Retiring packet 10 (plat = 30, nlat = 30, frag = 0, src = 10, dest = 4085).
30 | node4086 | Injecting credit for VC 0 into subnet 0.
30 | node4086 | Retiring flit 9 (packet 9, src = 9, dest = 4086, hops = 7, flat = 30).
30 | node4086 | Retiring packet 9 (plat = 30, nlat = 30, frag = 0, src = 9, dest = 4086).
30 | node4087 | Injecting credit for VC 0 into subnet 0.
30 | node4087 | Retiring flit 8 (packet 8, src = 8, dest = 4087, hops = 7, flat = 30).
30 | node4087 | Retiring packet 8 (plat = 30, nlat = 30, frag = 0, src = 8, dest = 4087).
30 | node4089 | Injecting credit for VC 0 into subnet 0.
30 | node4089 | Retiring flit 6 (packet 6, src = 6, dest = 4089, hops = 7, flat = 30).
30 | node4089 | Retiring packet 6 (plat = 30, nlat = 30, frag = 0, src = 6, dest = 4089).
30 | node4091 | Injecting credit for VC 0 into subnet 0.
30 | node4091 | Retiring flit 4 (packet 4, src = 4, dest = 4091, hops = 7, flat = 30).
30 | node4091 | Retiring packet 4 (plat = 30, nlat = 30, frag = 0, src = 4, dest = 4091).
30 | node4093 | Injecting credit for VC 0 into subnet 0.
30 | node4093 | Retiring flit 2 (packet 2, src = 2, dest = 4093, hops = 7, flat = 30).
30 | node4093 | Retiring packet 2 (plat = 30, nlat = 30, frag = 0, src = 2, dest = 4093).
30 | node4094 | Injecting credit for VC 0 into subnet 0.
30 | node4094 | Retiring flit 1 (packet 1, src = 1, dest = 4094, hops = 7, flat = 30).
30 | node4094 | Retiring packet 1 (plat = 30, nlat = 30, frag = 0, src = 1, dest = 4094).
30 | network_0/router_level3_511 | Beginning switch allocation for VC 0 at input 9 (front: 5).
30 | network_0/router_level3_511 |   Requesting output 2.0 (non-spec, pri: 0).
30 | network_0/router_level3_511/sw_allocator | Input requests = [ 0 -> [ 10@0 14@0 ]  1 -> [ 9@0 14@0 15@0 ]  2 -> [ 12@0 15@0 ]  3 -> [ 10@0 11@0 ]  4 -> [ 8@0 13@0 ]  5 -> [ 9@0 11@0 ]  6 -> [ 11@0 12@0 ]  7 -> [ 8@0 12@0 15@0 ]  9 -> [ 2@0 ]  12 -> [ 0@0 ]  13 -> [ 2@0 ]  15 -> [ 1@0 ]  ], output requests = [ 0 -> [ 12@0 ]  1 -> [ 15@0 ]  2 -> [ 9@0 13@0 ]  8 -> [ 4@0 7@0 ]  9 -> [ 1@0 5@0 ]  10 -> [ 0@0 3@0 ]  11 -> [ 3@0 5@0 6@0 ]  12 -> [ 2@0 6@0 7@0 ]  13 -> [ 4@0 ]  14 -> [ 0@0 1@0 ]  15 -> [ 1@0 2@0 7@0 ]  ].
30 | network_0/router_level3_511/sw_allocator | Input grants = [ 0 -> 14  2 -> 12  3 -> 10  4 -> 13  5 -> 9  6 -> 11  9 -> 2  12 -> 0  15 -> 1  ], output grants = [ 0 -> 12  1 -> 15  2 -> 9  9 -> 5  10 -> 3  11 -> 6  12 -> 2  13 -> 4  14 -> 0  ].
30 | network_0/router_level3_511 | Assigning output 2.0 to VC 0 at input 9.0.
30 | network_0/router_level3_511 | Completed switch allocation for VC 0 at input 9 (front: 5).
30 | network_0/router_level3_511 |   Scheduling switch connection from input 9.0 to output 2.0.
30 | network_0/network_0_fchan_egress4092 | Completed channel traversal for flit 3.
30 | network_0/network_0_fchan_1671 | Completed channel traversal for flit 7.
31 | node4092 | Ejecting flit 3 (packet 3) from VC 0.
31 | network_0/router_level1_464 | Received flit 7 from channel at input 11.
31 | node4092 | Injecting credit for VC 0 into subnet 0.
31 | node4092 | Retiring flit 3 (packet 3, src = 3, dest = 4092, hops = 7, flat = 31).
31 | node4092 | Retiring packet 3 (plat = 31, nlat = 31, frag = 0, src = 3, dest = 4092).
31 | network_0/router_level1_464 | Adding flit 7 to VC 1 at input 11 (state: idle, empty).
31 | network_0/router_level1_464 | Using precomputed lookahead routing information for VC 1 at input 11 (front: 7).
31 | network_0/router_level1_464/buf_11/vc_1 | Changing state from idle to vc_alloc.
31 | network_0/router_level1_464 | Beginning VC allocation for VC 1 at input 11 (front: 7).
31 | network_0/router_level1_464 |   VC 0 at output 7 is in use by VC 2 at input 8 (front flit: 36916).
31 | network_0/router_level1_464 |   Requesting VC 1 at output 7 (in_pri: 0, out_pri: 0).
31 | network_0/router_level1_464 |   Requesting VC 2 at output 7 (in_pri: 0, out_pri: 0).
31 | network_0/router_level1_464 |   Requesting VC 3 at output 7 (in_pri: 0, out_pri: 0).
31 | network_0/router_level1_464/vc_allocator | Input requests = [ 0 -> [ 53@0 54@0 55@0 ]  6 -> [ 44@0 46@0 47@0 ]  8 -> [ 33@0 34@0 35@0 ]  18 -> [ 56@0 58@0 59@0 ]  21 -> [ 40@0 42@0 43@0 ]  22 -> [ 40@0 42@0 43@0 ]  28 -> [ 44@0 46@0 47@0 ]  45 -> [ 29@0 30@0 31@0 ]  54 -> [ 0@0 1@0 2@0 3@0 ]  59 -> [ 4@0 5@0 6@0 7@0 ]  60 -> [ 8@0 10@0 11@0 ]  ], output requests = [ 0 -> [ 54@0 ]  1 -> [ 54@0 ]  2 -> [ 54@0 ]  3 -> [ 54@0 ]  4 -> [ 59@0 ]  5 -> [ 59@0 ]  6 -> [ 59@0 ]  7 -> [ 59@0 ]  8 -> [ 60@0 ]  10 -> [ 60@0 ]  11 -> [ 60@0 ]  29 -> [ 45@0 ]  30 -> [ 45@0 ]  31 -> [ 45@0 ]  33 -> [ 8@0 ]  34 -> [ 8@0 ]  35 -> [ 8@0 ]  40 -> [ 21@0 22@0 ]  42 -> [ 21@0 22@0 ]  43 -> [ 21@0 22@0 ]  44 -> [ 6@0 28@0 ]  46 -> [ 6@0 28@0 ]  47 -> [ 6@0 28@0 ]  53 -> [ 0@0 ]  54 -> [ 0@0 ]  55 -> [ 0@0 ]  56 -> [ 18@0 ]  58 -> [ 18@0 ]  59 -> [ 18@0 ]  ].
31 | network_0/router_level1_464/vc_allocator | Input grants = [ 0 -> 53  8 -> 33  18 -> 56  21 -> 42  22 -> 40  28 -> 44  45 -> 29  54 -> 0  59 -> 4  60 -> 8  ], output grants = [ 0 -> 54  4 -> 59  8 -> 60  29 -> 45  33 -> 8  40 -> 22  42 -> 21  44 -> 28  53 -> 0  56 -> 18  ].
31 | network_0/router_level1_464 | Assigning VC 1 at output 7 to VC 1 at input 11.
31 | network_0/router_level1_464 | Completed VC allocation for VC 1 at input 11 (front: 7).
31 | network_0/router_level1_464 |   Acquiring assigned VC 1 at output 7.
31 | network_0/router_level1_464/buf_11/vc_1 | Changing state from vc_alloc to active.
31 | network_0/router_level3_511 | Beginning crossbar traversal for flit 5 from input 9.0 to output 2.0.
31 | network_0/router_level3_511 | Completed crossbar traversal for flit 5 from input 9.0 to output 2.0.
31 | network_0/router_level3_511 | Buffering flit 5 at output 2.
31 | network_0/router_level3_511 | Sending flit 5 to channel at output 2.
32 | network_0/network_0_fchan_egress4090 | Beginning channel traversal for flit 5 with delay 1.
32 | network_0/router_level1_464 | Beginning switch allocation for VC 1 at input 11 (front: 7).
32 | network_0/router_level1_464 |   Requesting output 7.0 (non-spec, pri: 0).
32 | network_0/router_level1_464/sw_allocator | Input requests = [ 0 -> [ 13@0 ]  2 -> [ 8@0 ]  4 -> [ 14@0 ]  5 -> [ 10@0 ]  6 -> [ 10@0 15@0 ]  7 -> [ 9@0 11@0 ]  11 -> [ 7@0 ]  13 -> [ 0@0 ]  14 -> [ 1@0 ]  15 -> [ 2@0 ]  ], output requests = [ 0 -> [ 13@0 ]  1 -> [ 14@0 ]  2 -> [ 15@0 ]  7 -> [ 11@0 ]  8 -> [ 2@0 ]  9 -> [ 7@0 ]  10 -> [ 5@0 6@0 ]  11 -> [ 7@0 ]  13 -> [ 0@0 ]  14 -> [ 4@0 ]  15 -> [ 6@0 ]  ].
32 | network_0/router_level1_464/sw_allocator | Input grants = [ 0 -> 13  2 -> 8  4 -> 14  5 -> 10  6 -> 15  7 -> 9  11 -> 7  13 -> 0  14 -> 1  15 -> 2  ], output grants = [ 0 -> 13  1 -> 14  2 -> 15  7 -> 11  8 -> 2  9 -> 7  10 -> 5  13 -> 0  14 -> 4  15 -> 6  ].
32 | network_0/router_level1_464 | Assigning output 7.0 to VC 1 at input 11.0.
32 | network_0/router_level1_464 | Completed switch allocation for VC 1 at input 11 (front: 7).
32 | network_0/router_level1_464 |   Scheduling switch connection from input 11.0 to output 7.0.
32 | network_0/router_level1_464 | Updating lookahead routing information for flit 7.
32 | network_0/network_0_fchan_egress4090 | Completed channel traversal for flit 5.
33 | node4090 | Ejecting flit 5 (packet 5) from VC 0.
33 | node4090 | Injecting credit for VC 0 into subnet 0.
33 | node4090 | Retiring flit 5 (packet 5, src = 5, dest = 4090, hops = 7, flat = 33).
33 | node4090 | Retiring packet 5 (plat = 33, nlat = 33, frag = 0, src = 5, dest = 4090).
33 | network_0/router_level1_464 | Beginning crossbar traversal for flit 7 from input 11.0 to output 7.0.
33 | network_0/router_level1_464 | Completed crossbar traversal for flit 7 from input 11.0 to output 7.0.
33 | network_0/router_level1_464 | Buffering flit 7 at output 7.
33 | network_0/router_level1_464 | Sending flit 7 to channel at output 7.
34 | network_0/network_0_fchan_11911 | Beginning channel traversal for flit 7 with delay 1.
34 | network_0/network_0_fchan_11911 | Completed channel traversal for flit 7.
35 | network_0/router_level2_504 | Received flit 7 from channel at input 10.
35 | network_0/router_level2_504 | Adding flit 7 to VC 1 at input 10 (state: idle, empty).
35 | network_0/router_level2_504 | Using precomputed lookahead routing information for VC 1 at input 10 (front: 7).
35 | network_0/router_level2_504/buf_10/vc_1 | Changing state from idle to vc_alloc.
35 | network_0/router_level2_504 | Beginning VC allocation for VC 1 at input 10 (front: 7).
35 | network_0/router_level2_504 |   Requesting VC 0 at output 7 (in_pri: 0, out_pri: 0).
35 | network_0/router_level2_504 |   Requesting VC 1 at output 7 (in_pri: 0, out_pri: 0).
35 | network_0/router_level2_504 |   Requesting VC 2 at output 7 (in_pri: 0, out_pri: 0).
35 | network_0/router_level2_504 |   Requesting VC 3 at output 7 (in_pri: 0, out_pri: 0).
35 | network_0/router_level2_504/vc_allocator | Input requests = [ 1 -> [ 53@0 ]  3 -> [ 56@0 57@0 58@0 59@0 ]  8 -> [ 40@0 42@0 43@0 ]  13 -> [ 44@0 ]  16 -> [ 37@0 38@0 39@0 ]  17 -> [ 44@0 ]  20 -> [ 35@0 ]  24 -> [ 44@0 ]  26 -> [ 53@0 ]  30 -> [ 40@0 42@0 43@0 ]  31 -> [ 53@0 ]  32 -> [ 20@0 21@0 22@0 23@0 ]  37 -> [ 17@0 18@0 19@0 ]  40 -> [ 4@0 6@0 7@0 ]  41 -> [ 28@0 29@0 30@0 31@0 ]  44 -> [ 8@0 9@0 10@0 11@0 ]  45 -> [ 20@0 21@0 22@0 23@0 ]  ], output requests = [ 4 -> [ 40@0 ]  6 -> [ 40@0 ]  7 -> [ 40@0 ]  8 -> [ 44@0 ]  9 -> [ 44@0 ]  10 -> [ 44@0 ]  11 -> [ 44@0 ]  17 -> [ 37@0 ]  18 -> [ 37@0 ]  19 -> [ 37@0 ]  20 -> [ 32@0 45@0 ]  21 -> [ 32@0 45@0 ]  22 -> [ 32@0 45@0 ]  23 -> [ 32@0 45@0 ]  28 -> [ 41@0 ]  29 -> [ 41@0 ]  30 -> [ 41@0 ]  31 -> [ 41@0 ]  35 -> [ 20@0 ]  37 -> [ 16@0 ]  38 -> [ 16@0 ]  39 -> [ 16@0 ]  40 -> [ 8@0 30@0 ]  42 -> [ 8@0 30@0 ]  43 -> [ 8@0 30@0 ]  44 -> [ 13@0 17@0 24@0 ]  53 -> [ 1@0 26@0 31@0 ]  56 -> [ 3@0 ]  57 -> [ 3@0 ]  58 -> [ 3@0 ]  59 -> [ 3@0 ]  ].
35 | network_0/router_level2_504/vc_allocator | Input grants = [ 3 -> 56  8 -> 42  13 -> 44  16 -> 38  20 -> 35  30 -> 40  31 -> 53  32 -> 20  37 -> 17  40 -> 4  41 -> 28  44 -> 8  ], output grants = [ 4 -> 40  8 -> 44  17 -> 37  20 -> 32  28 -> 41  35 -> 20  38 -> 16  40 -> 30  42 -> 8  44 -> 13  53 -> 31  56 -> 3  ].
35 | network_0/router_level2_504 | Assigning VC 0 at output 7 to VC 1 at input 10.
35 | network_0/router_level2_504 | Completed VC allocation for VC 1 at input 10 (front: 7).
35 | network_0/router_level2_504 |   Acquiring assigned VC 0 at output 7.
35 | network_0/router_level2_504/buf_10/vc_1 | Changing state from vc_alloc to active.
36 | network_0/router_level2_504 | Beginning switch allocation for VC 1 at input 10 (front: 7).
36 | network_0/router_level2_504 |   Requesting output 7.0 (non-spec, pri: 0).
36 | network_0/router_level2_504/sw_allocator | Input requests = [ 0 -> [ 9@0 14@0 ]  1 -> [ 11@0 ]  2 -> [ 10@0 ]  3 -> [ 11@0 13@0 ]  4 -> [ 8@0 9@0 11@0 ]  5 -> [ 8@0 13@0 ]  7 -> [ 10@0 13@0 ]  8 -> [ 5@0 ]  9 -> [ 4@0 ]  10 -> [ 1@0 7@0 ]  11 -> [ 2@0 ]  ], output requests = [ 1 -> [ 10@0 ]  2 -> [ 11@0 ]  4 -> [ 9@0 ]  5 -> [ 8@0 ]  7 -> [ 10@0 ]  8 -> [ 4@0 5@0 ]  9 -> [ 0@0 4@0 ]  10 -> [ 2@0 7@0 ]  11 -> [ 1@0 3@0 4@0 ]  13 -> [ 3@0 5@0 7@0 ]  14 -> [ 0@0 ]  ].
36 | network_0/router_level2_504/sw_allocator | Input grants = [ 0 -> 14  3 -> 11  5 -> 13  7 -> 10  8 -> 5  9 -> 4  10 -> 7  11 -> 2  ], output grants = [ 2 -> 11  4 -> 9  5 -> 8  7 -> 10  10 -> 7  11 -> 3  13 -> 5  14 -> 0  ].
36 | network_0/router_level2_504 | Assigning output 7.0 to VC 1 at input 10.0.
36 | network_0/router_level2_504 | Completed switch allocation for VC 1 at input 10 (front: 7).
36 | network_0/router_level2_504 |   Scheduling switch connection from input 10.0 to output 7.0.
36 | network_0/router_level2_504 | Updating lookahead routing information for flit 7.
37 | network_0/router_level2_504 | Beginning crossbar traversal for flit 7 from input 10.0 to output 7.0.
37 | network_0/router_level2_504 | Completed crossbar traversal for flit 7 from input 10.0 to output 7.0.
37 | network_0/router_level2_504 | Buffering flit 7 at output 7.
37 | network_0/router_level2_504 | Sending flit 7 to channel at output 7.
38 | network_0/network_0_fchan_20423 | Beginning channel traversal for flit 7 with delay 1.
38 | network_0/network_0_fchan_20423 | Completed channel traversal for flit 7.
39 | network_0/router_level3_511 | Received flit 7 from channel at input 8.
39 | network_0/router_level3_511 | Adding flit 7 to VC 0 at input 8 (state: idle, empty).
39 | network_0/router_level3_511 | Using precomputed lookahead routing information for VC 0 at input 8 (front: 7).
39 | network_0/router_level3_511/buf_8/vc_0 | Changing state from idle to vc_alloc.
39 | network_0/router_level3_511 | Beginning VC allocation for VC 0 at input 8 (front: 7).
39 | network_0/router_level3_511 |   Requesting VC 0 at output 0 (in_pri: 0, out_pri: 0).
39 | network_0/router_level3_511 |   VC 1 at output 0 is in use by VC 0 at input 14 (front flit: 12295).
39 | network_0/router_level3_511 |   Requesting VC 2 at output 0 (in_pri: 0, out_pri: 0).
39 | network_0/router_level3_511 |   Requesting VC 3 at output 0 (in_pri: 0, out_pri: 0).
39 | network_0/router_level3_511/vc_allocator | Input requests = [ 3 -> [ 42@0 43@0 ]  6 -> [ 45@0 ]  9 -> [ 45@0 ]  11 -> [ 45@0 ]  18 -> [ 58@0 ]  19 -> [ 58@0 ]  21 -> [ 34@0 ]  23 -> [ 42@0 43@0 ]  25 -> [ 45@0 ]  28 -> [ 55@0 ]  30 -> [ 62@0 ]  32 -> [ 0@0 2@0 3@0 ]  36 -> [ 28@0 31@0 ]  53 -> [ 20@0 21@0 22@0 23@0 ]  ], output requests = [ 0 -> [ 32@0 ]  2 -> [ 32@0 ]  3 -> [ 32@0 ]  20 -> [ 53@0 ]  21 -> [ 53@0 ]  22 -> [ 53@0 ]  23 -> [ 53@0 ]  28 -> [ 36@0 ]  31 -> [ 36@0 ]  34 -> [ 21@0 ]  42 -> [ 3@0 23@0 ]  43 -> [ 3@0 23@0 ]  45 -> [ 6@0 9@0 11@0 25@0 ]  55 -> [ 28@0 ]  58 -> [ 18@0 19@0 ]  62 -> [ 30@0 ]  ].
39 | network_0/router_level3_511/vc_allocator | Input grants = [ 3 -> 43  6 -> 45  18 -> 58  21 -> 34  23 -> 42  28 -> 55  30 -> 62  32 -> 0  36 -> 28  53 -> 20  ], output grants = [ 0 -> 32  20 -> 53  28 -> 36  34 -> 21  42 -> 23  43 -> 3  45 -> 6  55 -> 28  58 -> 18  62 -> 30  ].
39 | network_0/router_level3_511 | Assigning VC 0 at output 0 to VC 0 at input 8.
39 | network_0/router_level3_511 | Completed VC allocation for VC 0 at input 8 (front: 7).
39 | network_0/router_level3_511 |   Acquiring assigned VC 0 at output 0.
39 | network_0/router_level3_511/buf_8/vc_0 | Changing state from vc_alloc to active.
40 | network_0/router_level3_511 | Beginning switch allocation for VC 0 at input 8 (front: 7).
40 | network_0/router_level3_511 |   Requesting output 0.0 (non-spec, pri: 0).
40 | network_0/router_level3_511/sw_allocator | Input requests = [ 0 -> [ 10@0 ]  1 -> [ 9@0 11@0 14@0 ]  2 -> [ 12@0 15@0 ]  3 -> [ 8@0 9@0 ]  4 -> [ 14@0 15@0 ]  5 -> [ 8@0 10@0 13@0 ]  6 -> [ 11@0 ]  7 -> [ 12@0 13@0 15@0 ]  8 -> [ 0@0 ]  9 -> [ 7@0 ]  13 -> [ 5@0 ]  14 -> [ 0@0 7@0 ]  ], output requests = [ 0 -> [ 8@0 14@0 ]  5 -> [ 13@0 ]  7 -> [ 9@0 14@0 ]  8 -> [ 3@0 5@0 ]  9 -> [ 1@0 3@0 ]  10 -> [ 0@0 5@0 ]  11 -> [ 1@0 6@0 ]  12 -> [ 2@0 7@0 ]  13 -> [ 5@0 7@0 ]  14 -> [ 1@0 4@0 ]  15 -> [ 2@0 4@0 7@0 ]  ].
40 | network_0/router_level3_511/sw_allocator | Input grants = [ 2 -> 15  3 -> 8  4 -> 14  5 -> 10  6 -> 11  7 -> 12  8 -> 0  13 -> 5  14 -> 7  ], output grants = [ 0 -> 8  5 -> 13  7 -> 14  8 -> 3  10 -> 5  11 -> 6  12 -> 7  14 -> 4  15 -> 2  ].
40 | network_0/router_level3_511 | Assigning output 0.0 to VC 0 at input 8.0.
40 | network_0/router_level3_511 | Completed switch allocation for VC 0 at input 8 (front: 7).
40 | network_0/router_level3_511 |   Scheduling switch connection from input 8.0 to output 0.0.
41 | network_0/router_level3_511 | Beginning crossbar traversal for flit 7 from input 8.0 to output 0.0.
41 | network_0/router_level3_511 | Completed crossbar traversal for flit 7 from input 8.0 to output 0.0.
41 | network_0/router_level3_511 | Buffering flit 7 at output 0.
41 | network_0/router_level3_511 | Sending flit 7 to channel at output 0.
42 | network_0/network_0_fchan_egress4088 | Beginning channel traversal for flit 7 with delay 1.
42 | network_0/network_0_fchan_egress4088 | Completed channel traversal for flit 7.
43 | node4088 | Ejecting flit 7 (packet 7) from VC 0.
43 | node4088 | Injecting credit for VC 0 into subnet 0.
43 | node4088 | Retiring flit 7 (packet 7, src = 7, dest = 4088, hops = 7, flat = 43).
43 | node4088 | Retiring packet 7 (plat = 43, nlat = 43, frag = 0, src = 7, dest = 4088).
Class 0:
Packet latency average = 229.397
	minimum = 30
	maximum = 574
Network latency average = 164.487
	minimum = 30
	maximum = 459
Slowest packet = 745866
Flit latency average = 164.487
	minimum = 30
	maximum = 459
Slowest flit = 1499451
Fragmentation average = 0
	minimum = 0
	maximum = 0
Injected packet rate average = 0.740518
	minimum = 0.671 (at node 3780)
	maximum = 0.783 (at node 4017)
Accepted packet rate average = 0.596932
	minimum = 0.532 (at node 315)
	maximum = 0.645 (at node 1431)
Injected flit rate average = 0.740518
	minimum = 0.671 (at node 3780)
	maximum = 0.783 (at node 4017)
Accepted flit rate average= 0.596932
	minimum = 0.532 (at node 315)
	maximum = 0.645 (at node 1431)
Injected packet length average = 1
Accepted packet length average = 1
Total in-flight flits = 589453 (0 measured)
latency change    = 1
throughput change = 1
Class 0:
Packet latency average = 411.503
	minimum = 30
	maximum = 948
Network latency average = 198.797
	minimum = 30
	maximum = 557
Slowest packet = 745866
Flit latency average = 198.797
	minimum = 30
	maximum = 557
Slowest flit = 3849674
Fragmentation average = 0
	minimum = 0
	maximum = 0
Injected packet rate average = 0.703696
	minimum = 0.651 (at node 3780)
	maximum = 0.742 (at node 1738)
Accepted packet rate average = 0.622899
	minimum = 0.578 (at node 315)
	maximum = 0.6585 (at node 2357)
Injected flit rate average = 0.703696
	minimum = 0.651 (at node 3780)
	maximum = 0.742 (at node 1738)
Accepted flit rate average= 0.622899
	minimum = 0.578 (at node 315)
	maximum = 0.6585 (at node 2357)
Injected packet length average = 1
Accepted packet length average = 1
Total in-flight flits = 663290 (0 measured)
latency change    = 0.442539
throughput change = 0.041687
Class 0:
Packet latency average = 927.074
	minimum = 615
	maximum = 1311
Network latency average = 249.658
	minimum = 70
	maximum = 578
Slowest packet = 5011914
Flit latency average = 249.658
	minimum = 70
	maximum = 578
Slowest flit = 5921444
Fragmentation average = 0
	minimum = 0
	maximum = 0
Injected packet rate average = 0.659785
	minimum = 0.537 (at node 2887)
	maximum = 0.718 (at node 1125)
Accepted packet rate average = 0.654221
	minimum = 0.547 (at node 1211)
	maximum = 0.712 (at node 3569)
Injected flit rate average = 0.659785
	minimum = 0.537 (at node 2887)
	maximum = 0.718 (at node 1125)
Accepted flit rate average= 0.654221
	minimum = 0.547 (at node 1211)
	maximum = 0.712 (at node 3569)
Injected packet length average = 1
Accepted packet length average = 1
Total in-flight flits = 686059 (0 measured)
latency change    = 0.556128
throughput change = 0.0478761
Average latency for class 0 exceeded 500 cycles. Aborting simulation.
Too many sample periods needed to converge
Simulation unstable, ending ...
Total run time 783.61
