BEGIN Configuration File: examples/fattree_config_0.80_4_bitcomp
// $Id: dragonflyconfig 3555 2011-05-16 23:37:55Z dub $

// Copyright (c) 2007-2015, Trustees of The Leland Stanford Junior University
// All rights reserved.
//
// Redistribution and use in source and binary forms, with or without
// modification, are permitted provided that the following conditions are met:
//
// Redistributions of source code must retain the above copyright notice, this
// list of conditions and the following disclaimer.
// Redistributions in binary form must reproduce the above copyright notice,
// this list of conditions and the following disclaimer in the documentation
// and/or other materials provided with the distribution.
//
// THIS SOFTWARE IS PROVIDED BY THE COPYRIGHT HOLDERS AND CONTRIBUTORS "AS IS"
// AND ANY EXPRESS OR IMPLIED WARRANTIES, INCLUDING, BUT NOT LIMITED TO, THE
// IMPLIED WARRANTIES OF MERCHANTABILITY AND FITNESS FOR A PARTICULAR PURPOSE
// ARE DISCLAIMED. IN NO EVENT SHALL THE COPYRIGHT OWNER OR CONTRIBUTORS BE
// LIABLE FOR ANY DIRECT, INDIRECT, INCIDENTAL, SPECIAL, EXEMPLARY, OR
// CONSEQUENTIAL DAMAGES (INCLUDING, BUT NOT LIMITED TO, PROCUREMENT OF
// SUBSTITUTE GOODS OR SERVICES; LOSS OF USE, DATA, OR PROFITS; OR BUSINESS
// INTERRUPTION) HOWEVER CAUSED AND ON ANY THEORY OF LIABILITY, WHETHER IN
// CONTRACT, STRICT LIABILITY, OR TORT (INCLUDING NEGLIGENCE OR OTHERWISE)
// ARISING IN ANY WAY OUT OF THE USE OF THIS SOFTWARE, EVEN IF ADVISED OF THE
// POSSIBILITY OF SUCH DAMAGE.


hold_switch_for_packet=1;

vc_buf_size = 16;


wait_for_tail_credit = 0;

//
// Router architecture
//
vc_allocator = separable_input_first; 
sw_allocator = separable_input_first;
alloc_iters  = 1;

credit_delay   = 2;
routing_delay  = 0;
vc_alloc_delay = 1;
sw_alloc_delay = 1;
st_final_delay = 1;

input_speedup     = 1;
output_speedup    = 1;
internal_speedup  = 1.0;


warmup_periods = 3;
sim_count          = 1;

sample_period  = 1000;  

routing_function = nca;
num_vcs     = 4;

priority = none;
traffic = bitcomp;


injection_rate = 0.80;
packet_size = 1;
injection_rate_uses_flits=1;

topology = fattree;

k  = 8;
n  = 4;
t = 4;

watch_file = watchfile.txt;
watch_out=-;
stats_out = examples/fattree_config_0.80_4_bitcomp.m;

END Configuration File: examples/fattree_config_0.80_4_bitcomp
Fat Tree
 k = 8 levels = 4
 each switch - total radix =  16
 # of switches = 2048
 # of channels = 24576
 # of nodes ( size of network ) = 4096
 tapering factor = 4
0 | node1 | Enqueuing flit 1 (packet 1) at time 0.
0 | node2 | Enqueuing flit 2 (packet 2) at time 0.
0 | node3 | Enqueuing flit 3 (packet 3) at time 0.
0 | node4 | Enqueuing flit 4 (packet 4) at time 0.
0 | node5 | Enqueuing flit 5 (packet 5) at time 0.
0 | node8 | Enqueuing flit 6 (packet 6) at time 0.
0 | node9 | Enqueuing flit 7 (packet 7) at time 0.
0 | node10 | Enqueuing flit 8 (packet 8) at time 0.
0 | node11 | Enqueuing flit 9 (packet 9) at time 0.
0 | node12 | Enqueuing flit 10 (packet 10) at time 0.
0 | traffic_manager | Finding output VC for flit 1:
0 | traffic_manager |   Selected output VC 0.
0 | node1 | Generating lookahead routing info for flit 1.
0 | node1 | Injecting flit 1 into subnet 0 at time 0 with priority 0.
0 | traffic_manager | Finding output VC for flit 2:
0 | traffic_manager |   Selected output VC 0.
0 | node2 | Generating lookahead routing info for flit 2.
0 | node2 | Injecting flit 2 into subnet 0 at time 0 with priority 0.
0 | traffic_manager | Finding output VC for flit 3:
0 | traffic_manager |   Selected output VC 0.
0 | node3 | Generating lookahead routing info for flit 3.
0 | node3 | Injecting flit 3 into subnet 0 at time 0 with priority 0.
0 | traffic_manager | Finding output VC for flit 4:
0 | traffic_manager |   Selected output VC 0.
0 | node4 | Generating lookahead routing info for flit 4.
0 | node4 | Injecting flit 4 into subnet 0 at time 0 with priority 0.
0 | traffic_manager | Finding output VC for flit 5:
0 | traffic_manager |   Selected output VC 0.
0 | node5 | Generating lookahead routing info for flit 5.
0 | node5 | Injecting flit 5 into subnet 0 at time 0 with priority 0.
0 | traffic_manager | Finding output VC for flit 6:
0 | traffic_manager |   Selected output VC 0.
0 | node8 | Generating lookahead routing info for flit 6.
0 | node8 | Injecting flit 6 into subnet 0 at time 0 with priority 0.
0 | traffic_manager | Finding output VC for flit 7:
0 | traffic_manager |   Selected output VC 0.
0 | node9 | Generating lookahead routing info for flit 7.
0 | node9 | Injecting flit 7 into subnet 0 at time 0 with priority 0.
0 | traffic_manager | Finding output VC for flit 8:
0 | traffic_manager |   Selected output VC 0.
0 | node10 | Generating lookahead routing info for flit 8.
0 | node10 | Injecting flit 8 into subnet 0 at time 0 with priority 0.
0 | traffic_manager | Finding output VC for flit 9:
0 | traffic_manager |   Selected output VC 0.
0 | node11 | Generating lookahead routing info for flit 9.
0 | node11 | Injecting flit 9 into subnet 0 at time 0 with priority 0.
0 | traffic_manager | Finding output VC for flit 10:
0 | traffic_manager |   Selected output VC 0.
0 | node12 | Generating lookahead routing info for flit 10.
0 | node12 | Injecting flit 10 into subnet 0 at time 0 with priority 0.
1 | network_0/network_0_fchan_ingress1 | Beginning channel traversal for flit 1 with delay 1.
1 | network_0/network_0_fchan_ingress2 | Beginning channel traversal for flit 2 with delay 1.
1 | network_0/network_0_fchan_ingress3 | Beginning channel traversal for flit 3 with delay 1.
1 | network_0/network_0_fchan_ingress4 | Beginning channel traversal for flit 4 with delay 1.
1 | network_0/network_0_fchan_ingress5 | Beginning channel traversal for flit 5 with delay 1.
1 | network_0/network_0_fchan_ingress8 | Beginning channel traversal for flit 6 with delay 1.
1 | network_0/network_0_fchan_ingress9 | Beginning channel traversal for flit 7 with delay 1.
1 | network_0/network_0_fchan_ingress10 | Beginning channel traversal for flit 8 with delay 1.
1 | network_0/network_0_fchan_ingress11 | Beginning channel traversal for flit 9 with delay 1.
1 | network_0/network_0_fchan_ingress12 | Beginning channel traversal for flit 10 with delay 1.
1 | network_0/network_0_fchan_ingress1 | Completed channel traversal for flit 1.
1 | network_0/network_0_fchan_ingress2 | Completed channel traversal for flit 2.
1 | network_0/network_0_fchan_ingress3 | Completed channel traversal for flit 3.
1 | network_0/network_0_fchan_ingress4 | Completed channel traversal for flit 4.
1 | network_0/network_0_fchan_ingress5 | Completed channel traversal for flit 5.
1 | network_0/network_0_fchan_ingress8 | Completed channel traversal for flit 6.
1 | network_0/network_0_fchan_ingress9 | Completed channel traversal for flit 7.
1 | network_0/network_0_fchan_ingress10 | Completed channel traversal for flit 8.
1 | network_0/network_0_fchan_ingress11 | Completed channel traversal for flit 9.
1 | network_0/network_0_fchan_ingress12 | Completed channel traversal for flit 10.
2 | network_0/router_level3_0 | Received flit 1 from channel at input 1.
2 | network_0/router_level3_0 | Received flit 2 from channel at input 2.
2 | network_0/router_level3_0 | Received flit 3 from channel at input 3.
2 | network_0/router_level3_0 | Received flit 4 from channel at input 4.
2 | network_0/router_level3_0 | Received flit 5 from channel at input 5.
2 | network_0/router_level3_1 | Received flit 6 from channel at input 0.
2 | network_0/router_level3_1 | Received flit 7 from channel at input 1.
2 | network_0/router_level3_1 | Received flit 8 from channel at input 2.
2 | network_0/router_level3_1 | Received flit 9 from channel at input 3.
2 | network_0/router_level3_1 | Received flit 10 from channel at input 4.
2 | network_0/router_level3_0 | Adding flit 1 to VC 0 at input 1 (state: idle, empty).
2 | network_0/router_level3_0 | Using precomputed lookahead routing information for VC 0 at input 1 (front: 1).
2 | network_0/router_level3_0/buf_1/vc_0 | Changing state from idle to vc_alloc.
2 | network_0/router_level3_0 | Adding flit 2 to VC 0 at input 2 (state: idle, empty).
2 | network_0/router_level3_0 | Using precomputed lookahead routing information for VC 0 at input 2 (front: 2).
2 | network_0/router_level3_0/buf_2/vc_0 | Changing state from idle to vc_alloc.
2 | network_0/router_level3_0 | Adding flit 3 to VC 0 at input 3 (state: idle, empty).
2 | network_0/router_level3_0 | Using precomputed lookahead routing information for VC 0 at input 3 (front: 3).
2 | network_0/router_level3_0/buf_3/vc_0 | Changing state from idle to vc_alloc.
2 | network_0/router_level3_0 | Adding flit 4 to VC 0 at input 4 (state: idle, empty).
2 | network_0/router_level3_0 | Using precomputed lookahead routing information for VC 0 at input 4 (front: 4).
2 | network_0/router_level3_0/buf_4/vc_0 | Changing state from idle to vc_alloc.
2 | network_0/router_level3_0 | Adding flit 5 to VC 0 at input 5 (state: idle, empty).
2 | network_0/router_level3_0 | Using precomputed lookahead routing information for VC 0 at input 5 (front: 5).
2 | network_0/router_level3_0/buf_5/vc_0 | Changing state from idle to vc_alloc.
2 | network_0/router_level3_0 | Beginning VC allocation for VC 0 at input 1 (front: 1).
2 | network_0/router_level3_0 |   Requesting VC 0 at output 8 (in_pri: 0, out_pri: 0).
2 | network_0/router_level3_0 |   Requesting VC 1 at output 8 (in_pri: 0, out_pri: 0).
2 | network_0/router_level3_0 |   Requesting VC 2 at output 8 (in_pri: 0, out_pri: 0).
2 | network_0/router_level3_0 |   Requesting VC 3 at output 8 (in_pri: 0, out_pri: 0).
2 | network_0/router_level3_0 | Beginning VC allocation for VC 0 at input 2 (front: 2).
2 | network_0/router_level3_0 |   Requesting VC 0 at output 12 (in_pri: 0, out_pri: 0).
2 | network_0/router_level3_0 |   Requesting VC 1 at output 12 (in_pri: 0, out_pri: 0).
2 | network_0/router_level3_0 |   Requesting VC 2 at output 12 (in_pri: 0, out_pri: 0).
2 | network_0/router_level3_0 |   Requesting VC 3 at output 12 (in_pri: 0, out_pri: 0).
2 | network_0/router_level3_0 | Beginning VC allocation for VC 0 at input 3 (front: 3).
2 | network_0/router_level3_0 |   Requesting VC 0 at output 10 (in_pri: 0, out_pri: 0).
2 | network_0/router_level3_0 |   Requesting VC 1 at output 10 (in_pri: 0, out_pri: 0).
2 | network_0/router_level3_0 |   Requesting VC 2 at output 10 (in_pri: 0, out_pri: 0).
2 | network_0/router_level3_0 |   Requesting VC 3 at output 10 (in_pri: 0, out_pri: 0).
2 | network_0/router_level3_0 | Beginning VC allocation for VC 0 at input 4 (front: 4).
2 | network_0/router_level3_0 |   Requesting VC 0 at output 14 (in_pri: 0, out_pri: 0).
2 | network_0/router_level3_0 |   Requesting VC 1 at output 14 (in_pri: 0, out_pri: 0).
2 | network_0/router_level3_0 |   Requesting VC 2 at output 14 (in_pri: 0, out_pri: 0).
2 | network_0/router_level3_0 |   Requesting VC 3 at output 14 (in_pri: 0, out_pri: 0).
2 | network_0/router_level3_0 | Beginning VC allocation for VC 0 at input 5 (front: 5).
2 | network_0/router_level3_0 |   Requesting VC 0 at output 15 (in_pri: 0, out_pri: 0).
2 | network_0/router_level3_0 |   Requesting VC 1 at output 15 (in_pri: 0, out_pri: 0).
2 | network_0/router_level3_0 |   Requesting VC 2 at output 15 (in_pri: 0, out_pri: 0).
2 | network_0/router_level3_0 |   Requesting VC 3 at output 15 (in_pri: 0, out_pri: 0).
2 | network_0/router_level3_0/vc_allocator | Input requests = [ 0 -> [ 36@0 37@0 38@0 39@0 ]  4 -> [ 32@0 33@0 34@0 35@0 ]  8 -> [ 48@0 49@0 50@0 51@0 ]  12 -> [ 40@0 41@0 42@0 43@0 ]  16 -> [ 56@0 57@0 58@0 59@0 ]  20 -> [ 60@0 61@0 62@0 63@0 ]  ], output requests = [ 32 -> [ 4@0 ]  33 -> [ 4@0 ]  34 -> [ 4@0 ]  35 -> [ 4@0 ]  36 -> [ 0@0 ]  37 -> [ 0@0 ]  38 -> [ 0@0 ]  39 -> [ 0@0 ]  40 -> [ 12@0 ]  41 -> [ 12@0 ]  42 -> [ 12@0 ]  43 -> [ 12@0 ]  48 -> [ 8@0 ]  49 -> [ 8@0 ]  50 -> [ 8@0 ]  51 -> [ 8@0 ]  56 -> [ 16@0 ]  57 -> [ 16@0 ]  58 -> [ 16@0 ]  59 -> [ 16@0 ]  60 -> [ 20@0 ]  61 -> [ 20@0 ]  62 -> [ 20@0 ]  63 -> [ 20@0 ]  ].
2 | network_0/router_level3_0/vc_allocator | Input grants = [ 0 -> 36  4 -> 32  8 -> 48  12 -> 40  16 -> 56  20 -> 60  ], output grants = [ 32 -> 4  36 -> 0  40 -> 12  48 -> 8  56 -> 16  60 -> 20  ].
2 | network_0/router_level3_0 | Assigning VC 0 at output 8 to VC 0 at input 1.
2 | network_0/router_level3_0 | Assigning VC 0 at output 12 to VC 0 at input 2.
2 | network_0/router_level3_0 | Assigning VC 0 at output 10 to VC 0 at input 3.
2 | network_0/router_level3_0 | Assigning VC 0 at output 14 to VC 0 at input 4.
2 | network_0/router_level3_0 | Assigning VC 0 at output 15 to VC 0 at input 5.
2 | network_0/router_level3_0 | Completed VC allocation for VC 0 at input 1 (front: 1).
2 | network_0/router_level3_0 |   Acquiring assigned VC 0 at output 8.
2 | network_0/router_level3_0/buf_1/vc_0 | Changing state from vc_alloc to active.
2 | network_0/router_level3_0 | Completed VC allocation for VC 0 at input 2 (front: 2).
2 | network_0/router_level3_0 |   Acquiring assigned VC 0 at output 12.
2 | network_0/router_level3_0/buf_2/vc_0 | Changing state from vc_alloc to active.
2 | network_0/router_level3_0 | Completed VC allocation for VC 0 at input 3 (front: 3).
2 | network_0/router_level3_0 |   Acquiring assigned VC 0 at output 10.
2 | network_0/router_level3_0/buf_3/vc_0 | Changing state from vc_alloc to active.
2 | network_0/router_level3_0 | Completed VC allocation for VC 0 at input 4 (front: 4).
2 | network_0/router_level3_0 |   Acquiring assigned VC 0 at output 14.
2 | network_0/router_level3_0/buf_4/vc_0 | Changing state from vc_alloc to active.
2 | network_0/router_level3_0 | Completed VC allocation for VC 0 at input 5 (front: 5).
2 | network_0/router_level3_0 |   Acquiring assigned VC 0 at output 15.
2 | network_0/router_level3_0/buf_5/vc_0 | Changing state from vc_alloc to active.
2 | network_0/router_level3_1 | Adding flit 6 to VC 0 at input 0 (state: idle, empty).
2 | network_0/router_level3_1 | Using precomputed lookahead routing information for VC 0 at input 0 (front: 6).
2 | network_0/router_level3_1/buf_0/vc_0 | Changing state from idle to vc_alloc.
2 | network_0/router_level3_1 | Adding flit 7 to VC 0 at input 1 (state: idle, empty).
2 | network_0/router_level3_1 | Using precomputed lookahead routing information for VC 0 at input 1 (front: 7).
2 | network_0/router_level3_1/buf_1/vc_0 | Changing state from idle to vc_alloc.
2 | network_0/router_level3_1 | Adding flit 8 to VC 0 at input 2 (state: idle, empty).
2 | network_0/router_level3_1 | Using precomputed lookahead routing information for VC 0 at input 2 (front: 8).
2 | network_0/router_level3_1/buf_2/vc_0 | Changing state from idle to vc_alloc.
2 | network_0/router_level3_1 | Adding flit 9 to VC 0 at input 3 (state: idle, empty).
2 | network_0/router_level3_1 | Using precomputed lookahead routing information for VC 0 at input 3 (front: 9).
2 | network_0/router_level3_1/buf_3/vc_0 | Changing state from idle to vc_alloc.
2 | network_0/router_level3_1 | Adding flit 10 to VC 0 at input 4 (state: idle, empty).
2 | network_0/router_level3_1 | Using precomputed lookahead routing information for VC 0 at input 4 (front: 10).
2 | network_0/router_level3_1/buf_4/vc_0 | Changing state from idle to vc_alloc.
2 | network_0/router_level3_1 | Beginning VC allocation for VC 0 at input 0 (front: 6).
2 | network_0/router_level3_1 |   Requesting VC 0 at output 14 (in_pri: 0, out_pri: 0).
2 | network_0/router_level3_1 |   Requesting VC 1 at output 14 (in_pri: 0, out_pri: 0).
2 | network_0/router_level3_1 |   Requesting VC 2 at output 14 (in_pri: 0, out_pri: 0).
2 | network_0/router_level3_1 |   Requesting VC 3 at output 14 (in_pri: 0, out_pri: 0).
2 | network_0/router_level3_1 | Beginning VC allocation for VC 0 at input 1 (front: 7).
2 | network_0/router_level3_1 |   Requesting VC 0 at output 12 (in_pri: 0, out_pri: 0).
2 | network_0/router_level3_1 |   Requesting VC 1 at output 12 (in_pri: 0, out_pri: 0).
2 | network_0/router_level3_1 |   Requesting VC 2 at output 12 (in_pri: 0, out_pri: 0).
2 | network_0/router_level3_1 |   Requesting VC 3 at output 12 (in_pri: 0, out_pri: 0).
2 | network_0/router_level3_1 | Beginning VC allocation for VC 0 at input 2 (front: 8).
2 | network_0/router_level3_1 |   Requesting VC 0 at output 14 (in_pri: 0, out_pri: 0).
2 | network_0/router_level3_1 |   Requesting VC 1 at output 14 (in_pri: 0, out_pri: 0).
2 | network_0/router_level3_1 |   Requesting VC 2 at output 14 (in_pri: 0, out_pri: 0).
2 | network_0/router_level3_1 |   Requesting VC 3 at output 14 (in_pri: 0, out_pri: 0).
2 | network_0/router_level3_1 | Beginning VC allocation for VC 0 at input 3 (front: 9).
2 | network_0/router_level3_1 |   Requesting VC 0 at output 10 (in_pri: 0, out_pri: 0).
2 | network_0/router_level3_1 |   Requesting VC 1 at output 10 (in_pri: 0, out_pri: 0).
2 | network_0/router_level3_1 |   Requesting VC 2 at output 10 (in_pri: 0, out_pri: 0).
2 | network_0/router_level3_1 |   Requesting VC 3 at output 10 (in_pri: 0, out_pri: 0).
2 | network_0/router_level3_1 | Beginning VC allocation for VC 0 at input 4 (front: 10).
2 | network_0/router_level3_1 |   Requesting VC 0 at output 9 (in_pri: 0, out_pri: 0).
2 | network_0/router_level3_1 |   Requesting VC 1 at output 9 (in_pri: 0, out_pri: 0).
2 | network_0/router_level3_1 |   Requesting VC 2 at output 9 (in_pri: 0, out_pri: 0).
2 | network_0/router_level3_1 |   Requesting VC 3 at output 9 (in_pri: 0, out_pri: 0).
2 | network_0/router_level3_1/vc_allocator | Input requests = [ 0 -> [ 56@0 57@0 58@0 59@0 ]  4 -> [ 48@0 49@0 50@0 51@0 ]  8 -> [ 56@0 57@0 58@0 59@0 ]  12 -> [ 40@0 41@0 42@0 43@0 ]  16 -> [ 36@0 37@0 38@0 39@0 ]  20 -> [ 56@0 57@0 58@0 59@0 ]  24 -> [ 32@0 33@0 34@0 35@0 ]  28 -> [ 60@0 61@0 62@0 63@0 ]  ], output requests = [ 32 -> [ 24@0 ]  33 -> [ 24@0 ]  34 -> [ 24@0 ]  35 -> [ 24@0 ]  36 -> [ 16@0 ]  37 -> [ 16@0 ]  38 -> [ 16@0 ]  39 -> [ 16@0 ]  40 -> [ 12@0 ]  41 -> [ 12@0 ]  42 -> [ 12@0 ]  43 -> [ 12@0 ]  48 -> [ 4@0 ]  49 -> [ 4@0 ]  50 -> [ 4@0 ]  51 -> [ 4@0 ]  56 -> [ 0@0 8@0 20@0 ]  57 -> [ 0@0 8@0 20@0 ]  58 -> [ 0@0 8@0 20@0 ]  59 -> [ 0@0 8@0 20@0 ]  60 -> [ 28@0 ]  61 -> [ 28@0 ]  62 -> [ 28@0 ]  63 -> [ 28@0 ]  ].
2 | network_0/router_level3_1/vc_allocator | Input grants = [ 0 -> 56  4 -> 48  12 -> 40  16 -> 36  24 -> 32  28 -> 60  ], output grants = [ 32 -> 24  36 -> 16  40 -> 12  48 -> 4  56 -> 0  60 -> 28  ].
2 | network_0/router_level3_1 | Assigning VC 0 at output 14 to VC 0 at input 0.
2 | network_0/router_level3_1 | Assigning VC 0 at output 12 to VC 0 at input 1.
2 | network_0/router_level3_1 | VC allocation failed for VC 0 at input 2.
2 | network_0/router_level3_1 | Assigning VC 0 at output 10 to VC 0 at input 3.
2 | network_0/router_level3_1 | Assigning VC 0 at output 9 to VC 0 at input 4.
2 | network_0/router_level3_1 | Completed VC allocation for VC 0 at input 0 (front: 6).
2 | network_0/router_level3_1 |   Acquiring assigned VC 0 at output 14.
2 | network_0/router_level3_1/buf_0/vc_0 | Changing state from vc_alloc to active.
2 | network_0/router_level3_1 | Completed VC allocation for VC 0 at input 1 (front: 7).
2 | network_0/router_level3_1 |   Acquiring assigned VC 0 at output 12.
2 | network_0/router_level3_1/buf_1/vc_0 | Changing state from vc_alloc to active.
2 | network_0/router_level3_1 | Completed VC allocation for VC 0 at input 2 (front: 8).
2 | network_0/router_level3_1 |   No output VC allocated.
2 | network_0/router_level3_1 | Completed VC allocation for VC 0 at input 3 (front: 9).
2 | network_0/router_level3_1 |   Acquiring assigned VC 0 at output 10.
2 | network_0/router_level3_1/buf_3/vc_0 | Changing state from vc_alloc to active.
2 | network_0/router_level3_1 | Completed VC allocation for VC 0 at input 4 (front: 10).
2 | network_0/router_level3_1 |   Acquiring assigned VC 0 at output 9.
2 | network_0/router_level3_1/buf_4/vc_0 | Changing state from vc_alloc to active.
3 | network_0/router_level3_0 | Beginning switch allocation for VC 0 at input 1 (front: 1).
3 | network_0/router_level3_0 |   Requesting output 8.0 (non-spec, pri: 0).
3 | network_0/router_level3_0 | Beginning switch allocation for VC 0 at input 2 (front: 2).
3 | network_0/router_level3_0 |   Requesting output 12.0 (non-spec, pri: 0).
3 | network_0/router_level3_0 | Beginning switch allocation for VC 0 at input 3 (front: 3).
3 | network_0/router_level3_0 |   Requesting output 10.0 (non-spec, pri: 0).
3 | network_0/router_level3_0 | Beginning switch allocation for VC 0 at input 4 (front: 4).
3 | network_0/router_level3_0 |   Requesting output 14.0 (non-spec, pri: 0).
3 | network_0/router_level3_0 | Beginning switch allocation for VC 0 at input 5 (front: 5).
3 | network_0/router_level3_0 |   Requesting output 15.0 (non-spec, pri: 0).
3 | network_0/router_level3_0/sw_allocator | Input requests = [ 0 -> [ 9@0 ]  1 -> [ 8@0 ]  2 -> [ 12@0 ]  3 -> [ 10@0 ]  4 -> [ 14@0 ]  5 -> [ 15@0 ]  ], output requests = [ 8 -> [ 1@0 ]  9 -> [ 0@0 ]  10 -> [ 3@0 ]  12 -> [ 2@0 ]  14 -> [ 4@0 ]  15 -> [ 5@0 ]  ].
3 | network_0/router_level3_0/sw_allocator | Input grants = [ 0 -> 9  1 -> 8  2 -> 12  3 -> 10  4 -> 14  5 -> 15  ], output grants = [ 8 -> 1  9 -> 0  10 -> 3  12 -> 2  14 -> 4  15 -> 5  ].
3 | network_0/router_level3_0 | Assigning output 8.0 to VC 0 at input 1.0.
3 | network_0/router_level3_0 | Assigning output 12.0 to VC 0 at input 2.0.
3 | network_0/router_level3_0 | Assigning output 10.0 to VC 0 at input 3.0.
3 | network_0/router_level3_0 | Assigning output 14.0 to VC 0 at input 4.0.
3 | network_0/router_level3_0 | Assigning output 15.0 to VC 0 at input 5.0.
3 | network_0/router_level3_0 | Completed switch allocation for VC 0 at input 1 (front: 1).
3 | network_0/router_level3_0 |   Scheduling switch connection from input 1.0 to output 8.0.
3 | network_0/router_level3_0 | Updating lookahead routing information for flit 1.
3 | network_0/router_level3_0 | Completed switch allocation for VC 0 at input 2 (front: 2).
3 | network_0/router_level3_0 |   Scheduling switch connection from input 2.0 to output 12.0.
3 | network_0/router_level3_0 | Updating lookahead routing information for flit 2.
3 | network_0/router_level3_0 | Completed switch allocation for VC 0 at input 3 (front: 3).
3 | network_0/router_level3_0 |   Scheduling switch connection from input 3.0 to output 10.0.
3 | network_0/router_level3_0 | Updating lookahead routing information for flit 3.
3 | network_0/router_level3_0 | Completed switch allocation for VC 0 at input 4 (front: 4).
3 | network_0/router_level3_0 |   Scheduling switch connection from input 4.0 to output 14.0.
3 | network_0/router_level3_0 | Updating lookahead routing information for flit 4.
3 | network_0/router_level3_0 | Completed switch allocation for VC 0 at input 5 (front: 5).
3 | network_0/router_level3_0 |   Scheduling switch connection from input 5.0 to output 15.0.
3 | network_0/router_level3_0 | Updating lookahead routing information for flit 5.
3 | network_0/router_level3_1 | Beginning VC allocation for VC 0 at input 2 (front: 8).
3 | network_0/router_level3_1 |   VC 0 at output 14 is in use by VC 0 at input 0 (front flit: 6).
3 | network_0/router_level3_1 |   Requesting VC 1 at output 14 (in_pri: 0, out_pri: 0).
3 | network_0/router_level3_1 |   Requesting VC 2 at output 14 (in_pri: 0, out_pri: 0).
3 | network_0/router_level3_1 |   Requesting VC 3 at output 14 (in_pri: 0, out_pri: 0).
3 | network_0/router_level3_1/vc_allocator | Input requests = [ 1 -> [ 61@0 62@0 63@0 ]  5 -> [ 49@0 50@0 51@0 ]  8 -> [ 57@0 58@0 59@0 ]  17 -> [ 33@0 34@0 35@0 ]  20 -> [ 57@0 58@0 59@0 ]  21 -> [ 41@0 42@0 43@0 ]  25 -> [ 61@0 62@0 63@0 ]  ], output requests = [ 33 -> [ 17@0 ]  34 -> [ 17@0 ]  35 -> [ 17@0 ]  41 -> [ 21@0 ]  42 -> [ 21@0 ]  43 -> [ 21@0 ]  49 -> [ 5@0 ]  50 -> [ 5@0 ]  51 -> [ 5@0 ]  57 -> [ 8@0 20@0 ]  58 -> [ 8@0 20@0 ]  59 -> [ 8@0 20@0 ]  61 -> [ 1@0 25@0 ]  62 -> [ 1@0 25@0 ]  63 -> [ 1@0 25@0 ]  ].
3 | network_0/router_level3_1/vc_allocator | Input grants = [ 1 -> 61  5 -> 49  8 -> 57  17 -> 33  21 -> 41  ], output grants = [ 33 -> 17  41 -> 21  49 -> 5  57 -> 8  61 -> 1  ].
3 | network_0/router_level3_1 | Assigning VC 1 at output 14 to VC 0 at input 2.
3 | network_0/router_level3_1 | Beginning switch allocation for VC 0 at input 0 (front: 6).
3 | network_0/router_level3_1 |   Requesting output 14.0 (non-spec, pri: 0).
3 | network_0/router_level3_1 | Beginning switch allocation for VC 0 at input 1 (front: 7).
3 | network_0/router_level3_1 |   Requesting output 12.0 (non-spec, pri: 0).
3 | network_0/router_level3_1 | Beginning switch allocation for VC 0 at input 3 (front: 9).
3 | network_0/router_level3_1 |   Requesting output 10.0 (non-spec, pri: 0).
3 | network_0/router_level3_1 | Beginning switch allocation for VC 0 at input 4 (front: 10).
3 | network_0/router_level3_1 |   Requesting output 9.0 (non-spec, pri: 0).
3 | network_0/router_level3_1/sw_allocator | Input requests = [ 0 -> [ 14@0 ]  1 -> [ 12@0 ]  3 -> [ 10@0 ]  4 -> [ 9@0 ]  6 -> [ 8@0 ]  7 -> [ 15@0 ]  ], output requests = [ 8 -> [ 6@0 ]  9 -> [ 4@0 ]  10 -> [ 3@0 ]  12 -> [ 1@0 ]  14 -> [ 0@0 ]  15 -> [ 7@0 ]  ].
3 | network_0/router_level3_1/sw_allocator | Input grants = [ 0 -> 14  1 -> 12  3 -> 10  4 -> 9  6 -> 8  7 -> 15  ], output grants = [ 8 -> 6  9 -> 4  10 -> 3  12 -> 1  14 -> 0  15 -> 7  ].
3 | network_0/router_level3_1 | Assigning output 14.0 to VC 0 at input 0.0.
3 | network_0/router_level3_1 | Assigning output 12.0 to VC 0 at input 1.0.
3 | network_0/router_level3_1 | Assigning output 10.0 to VC 0 at input 3.0.
3 | network_0/router_level3_1 | Assigning output 9.0 to VC 0 at input 4.0.
3 | network_0/router_level3_1 | Completed VC allocation for VC 0 at input 2 (front: 8).
3 | network_0/router_level3_1 |   Acquiring assigned VC 1 at output 14.
3 | network_0/router_level3_1/buf_2/vc_0 | Changing state from vc_alloc to active.
3 | network_0/router_level3_1 | Completed switch allocation for VC 0 at input 0 (front: 6).
3 | network_0/router_level3_1 |   Scheduling switch connection from input 0.0 to output 14.0.
3 | network_0/router_level3_1 | Updating lookahead routing information for flit 6.
3 | network_0/router_level3_1 | Completed switch allocation for VC 0 at input 1 (front: 7).
3 | network_0/router_level3_1 |   Scheduling switch connection from input 1.0 to output 12.0.
3 | network_0/router_level3_1 | Updating lookahead routing information for flit 7.
3 | network_0/router_level3_1 | Completed switch allocation for VC 0 at input 3 (front: 9).
3 | network_0/router_level3_1 |   Scheduling switch connection from input 3.0 to output 10.0.
3 | network_0/router_level3_1 | Updating lookahead routing information for flit 9.
3 | network_0/router_level3_1 | Completed switch allocation for VC 0 at input 4 (front: 10).
3 | network_0/router_level3_1 |   Scheduling switch connection from input 4.0 to output 9.0.
3 | network_0/router_level3_1 | Updating lookahead routing information for flit 10.
4 | network_0/router_level3_0 | Beginning crossbar traversal for flit 1 from input 1.0 to output 8.0.
4 | network_0/router_level3_0 | Beginning crossbar traversal for flit 2 from input 2.0 to output 12.0.
4 | network_0/router_level3_0 | Beginning crossbar traversal for flit 3 from input 3.0 to output 10.0.
4 | network_0/router_level3_0 | Beginning crossbar traversal for flit 4 from input 4.0 to output 14.0.
4 | network_0/router_level3_0 | Beginning crossbar traversal for flit 5 from input 5.0 to output 15.0.
4 | network_0/router_level3_0 | Completed crossbar traversal for flit 1 from input 1.0 to output 8.0.
4 | network_0/router_level3_0 | Buffering flit 1 at output 8.
4 | network_0/router_level3_0 | Completed crossbar traversal for flit 2 from input 2.0 to output 12.0.
4 | network_0/router_level3_0 | Buffering flit 2 at output 12.
4 | network_0/router_level3_0 | Completed crossbar traversal for flit 3 from input 3.0 to output 10.0.
4 | network_0/router_level3_0 | Buffering flit 3 at output 10.
4 | network_0/router_level3_0 | Completed crossbar traversal for flit 4 from input 4.0 to output 14.0.
4 | network_0/router_level3_0 | Buffering flit 4 at output 14.
4 | network_0/router_level3_0 | Completed crossbar traversal for flit 5 from input 5.0 to output 15.0.
4 | network_0/router_level3_0 | Buffering flit 5 at output 15.
4 | network_0/router_level3_1 | Beginning switch allocation for VC 0 at input 2 (front: 8).
4 | network_0/router_level3_1 |   Requesting output 14.0 (non-spec, pri: 0).
4 | network_0/router_level3_1/sw_allocator | Input requests = [ 0 -> [ 15@0 ]  1 -> [ 12@0 ]  2 -> [ 14@0 ]  4 -> [ 8@0 ]  5 -> [ 10@0 ]  ], output requests = [ 8 -> [ 4@0 ]  10 -> [ 5@0 ]  12 -> [ 1@0 ]  14 -> [ 2@0 ]  15 -> [ 0@0 ]  ].
4 | network_0/router_level3_1/sw_allocator | Input grants = [ 0 -> 15  1 -> 12  2 -> 14  4 -> 8  5 -> 10  ], output grants = [ 8 -> 4  10 -> 5  12 -> 1  14 -> 2  15 -> 0  ].
4 | network_0/router_level3_1 | Assigning output 14.0 to VC 0 at input 2.0.
4 | network_0/router_level3_1 | Beginning crossbar traversal for flit 6 from input 0.0 to output 14.0.
4 | network_0/router_level3_1 | Beginning crossbar traversal for flit 7 from input 1.0 to output 12.0.
4 | network_0/router_level3_1 | Beginning crossbar traversal for flit 9 from input 3.0 to output 10.0.
4 | network_0/router_level3_1 | Beginning crossbar traversal for flit 10 from input 4.0 to output 9.0.
4 | network_0/router_level3_1 | Completed switch allocation for VC 0 at input 2 (front: 8).
4 | network_0/router_level3_1 |   Scheduling switch connection from input 2.0 to output 14.0.
4 | network_0/router_level3_1 | Updating lookahead routing information for flit 8.
4 | network_0/router_level3_1 | Completed crossbar traversal for flit 6 from input 0.0 to output 14.0.
4 | network_0/router_level3_1 | Buffering flit 6 at output 14.
4 | network_0/router_level3_1 | Completed crossbar traversal for flit 7 from input 1.0 to output 12.0.
4 | network_0/router_level3_1 | Buffering flit 7 at output 12.
4 | network_0/router_level3_1 | Completed crossbar traversal for flit 9 from input 3.0 to output 10.0.
4 | network_0/router_level3_1 | Buffering flit 9 at output 10.
4 | network_0/router_level3_1 | Completed crossbar traversal for flit 10 from input 4.0 to output 9.0.
4 | network_0/router_level3_1 | Buffering flit 10 at output 9.
4 | network_0/router_level3_0 | Sending flit 1 to channel at output 8.
4 | network_0/router_level3_0 | Sending flit 3 to channel at output 10.
4 | network_0/router_level3_0 | Sending flit 2 to channel at output 12.
4 | network_0/router_level3_0 | Sending flit 4 to channel at output 14.
4 | network_0/router_level3_0 | Sending flit 5 to channel at output 15.
4 | network_0/router_level3_1 | Sending flit 10 to channel at output 9.
4 | network_0/router_level3_1 | Sending flit 9 to channel at output 10.
4 | network_0/router_level3_1 | Sending flit 7 to channel at output 12.
4 | network_0/router_level3_1 | Sending flit 6 to channel at output 14.
5 | network_0/network_0_fchan_20480 | Beginning channel traversal for flit 1 with delay 1.
5 | network_0/network_0_fchan_20482 | Beginning channel traversal for flit 3 with delay 1.
5 | network_0/network_0_fchan_20484 | Beginning channel traversal for flit 2 with delay 1.
5 | network_0/network_0_fchan_20486 | Beginning channel traversal for flit 4 with delay 1.
5 | network_0/network_0_fchan_20487 | Beginning channel traversal for flit 5 with delay 1.
5 | network_0/network_0_fchan_20489 | Beginning channel traversal for flit 10 with delay 1.
5 | network_0/network_0_fchan_20490 | Beginning channel traversal for flit 9 with delay 1.
5 | network_0/network_0_fchan_20492 | Beginning channel traversal for flit 7 with delay 1.
5 | network_0/network_0_fchan_20494 | Beginning channel traversal for flit 6 with delay 1.
5 | network_0/router_level3_1 | Beginning crossbar traversal for flit 8 from input 2.0 to output 14.0.
5 | network_0/router_level3_1 | Completed crossbar traversal for flit 8 from input 2.0 to output 14.0.
5 | network_0/router_level3_1 | Buffering flit 8 at output 14.
5 | network_0/network_0_fchan_20480 | Completed channel traversal for flit 1.
5 | network_0/network_0_fchan_20482 | Completed channel traversal for flit 3.
5 | network_0/network_0_fchan_20484 | Completed channel traversal for flit 2.
5 | network_0/network_0_fchan_20486 | Completed channel traversal for flit 4.
5 | network_0/network_0_fchan_20487 | Completed channel traversal for flit 5.
5 | network_0/network_0_fchan_20489 | Completed channel traversal for flit 10.
5 | network_0/network_0_fchan_20490 | Completed channel traversal for flit 9.
5 | network_0/network_0_fchan_20492 | Completed channel traversal for flit 7.
5 | network_0/network_0_fchan_20494 | Completed channel traversal for flit 6.
5 | network_0/router_level3_1 | Sending flit 8 to channel at output 14.
6 | network_0/network_0_fchan_20494 | Beginning channel traversal for flit 8 with delay 1.
6 | network_0/router_level2_0 | Received flit 1 from channel at input 0.
6 | network_0/router_level2_1 | Received flit 10 from channel at input 1.
6 | network_0/router_level2_2 | Received flit 3 from channel at input 0.
6 | network_0/router_level2_2 | Received flit 9 from channel at input 1.
6 | network_0/router_level2_4 | Received flit 2 from channel at input 0.
6 | network_0/router_level2_4 | Received flit 7 from channel at input 1.
6 | network_0/router_level2_6 | Received flit 4 from channel at input 0.
6 | network_0/router_level2_6 | Received flit 6 from channel at input 1.
6 | network_0/router_level2_7 | Received flit 5 from channel at input 0.
6 | network_0/router_level2_0 | Adding flit 1 to VC 0 at input 0 (state: idle, empty).
6 | network_0/router_level2_0 | Using precomputed lookahead routing information for VC 0 at input 0 (front: 1).
6 | network_0/router_level2_0/buf_0/vc_0 | Changing state from idle to vc_alloc.
6 | network_0/router_level2_0 | Beginning VC allocation for VC 0 at input 0 (front: 1).
6 | network_0/router_level2_0 |   Requesting VC 0 at output 15 (in_pri: 0, out_pri: 0).
6 | network_0/router_level2_0 |   Requesting VC 1 at output 15 (in_pri: 0, out_pri: 0).
6 | network_0/router_level2_0 |   Requesting VC 2 at output 15 (in_pri: 0, out_pri: 0).
6 | network_0/router_level2_0 |   Requesting VC 3 at output 15 (in_pri: 0, out_pri: 0).
6 | network_0/router_level2_0/vc_allocator | Input requests = [ 0 -> [ 60@0 61@0 62@0 63@0 ]  4 -> [ 36@0 37@0 38@0 39@0 ]  8 -> [ 56@0 57@0 58@0 59@0 ]  20 -> [ 36@0 37@0 38@0 39@0 ]  ], output requests = [ 36 -> [ 4@0 20@0 ]  37 -> [ 4@0 20@0 ]  38 -> [ 4@0 20@0 ]  39 -> [ 4@0 20@0 ]  56 -> [ 8@0 ]  57 -> [ 8@0 ]  58 -> [ 8@0 ]  59 -> [ 8@0 ]  60 -> [ 0@0 ]  61 -> [ 0@0 ]  62 -> [ 0@0 ]  63 -> [ 0@0 ]  ].
6 | network_0/router_level2_0/vc_allocator | Input grants = [ 0 -> 60  4 -> 36  8 -> 56  ], output grants = [ 36 -> 4  56 -> 8  60 -> 0  ].
6 | network_0/router_level2_0 | Assigning VC 0 at output 15 to VC 0 at input 0.
6 | network_0/router_level2_0 | Completed VC allocation for VC 0 at input 0 (front: 1).
6 | network_0/router_level2_0 |   Acquiring assigned VC 0 at output 15.
6 | network_0/router_level2_0/buf_0/vc_0 | Changing state from vc_alloc to active.
6 | network_0/router_level2_1 | Adding flit 10 to VC 0 at input 1 (state: idle, empty).
6 | network_0/router_level2_1 | Using precomputed lookahead routing information for VC 0 at input 1 (front: 10).
6 | network_0/router_level2_1/buf_1/vc_0 | Changing state from idle to vc_alloc.
6 | network_0/router_level2_1 | Beginning VC allocation for VC 0 at input 1 (front: 10).
6 | network_0/router_level2_1 |   Requesting VC 0 at output 8 (in_pri: 0, out_pri: 0).
6 | network_0/router_level2_1 |   Requesting VC 1 at output 8 (in_pri: 0, out_pri: 0).
6 | network_0/router_level2_1 |   Requesting VC 2 at output 8 (in_pri: 0, out_pri: 0).
6 | network_0/router_level2_1 |   Requesting VC 3 at output 8 (in_pri: 0, out_pri: 0).
6 | network_0/router_level2_1/vc_allocator | Input requests = [ 0 -> [ 32@0 33@0 34@0 35@0 ]  4 -> [ 32@0 33@0 34@0 35@0 ]  8 -> [ 60@0 61@0 62@0 63@0 ]  16 -> [ 36@0 37@0 38@0 39@0 ]  20 -> [ 56@0 57@0 58@0 59@0 ]  24 -> [ 32@0 33@0 34@0 35@0 ]  28 -> [ 44@0 45@0 46@0 47@0 ]  ], output requests = [ 32 -> [ 0@0 4@0 24@0 ]  33 -> [ 0@0 4@0 24@0 ]  34 -> [ 0@0 4@0 24@0 ]  35 -> [ 0@0 4@0 24@0 ]  36 -> [ 16@0 ]  37 -> [ 16@0 ]  38 -> [ 16@0 ]  39 -> [ 16@0 ]  44 -> [ 28@0 ]  45 -> [ 28@0 ]  46 -> [ 28@0 ]  47 -> [ 28@0 ]  56 -> [ 20@0 ]  57 -> [ 20@0 ]  58 -> [ 20@0 ]  59 -> [ 20@0 ]  60 -> [ 8@0 ]  61 -> [ 8@0 ]  62 -> [ 8@0 ]  63 -> [ 8@0 ]  ].
6 | network_0/router_level2_1/vc_allocator | Input grants = [ 0 -> 32  8 -> 60  16 -> 36  20 -> 56  28 -> 44  ], output grants = [ 32 -> 0  36 -> 16  44 -> 28  56 -> 20  60 -> 8  ].
6 | network_0/router_level2_1 | VC allocation failed for VC 0 at input 1.
6 | network_0/router_level2_1 | Completed VC allocation for VC 0 at input 1 (front: 10).
6 | network_0/router_level2_1 |   No output VC allocated.
6 | network_0/router_level2_2 | Adding flit 3 to VC 0 at input 0 (state: idle, empty).
6 | network_0/router_level2_2 | Using precomputed lookahead routing information for VC 0 at input 0 (front: 3).
6 | network_0/router_level2_2/buf_0/vc_0 | Changing state from idle to vc_alloc.
6 | network_0/router_level2_2 | Adding flit 9 to VC 0 at input 1 (state: idle, empty).
6 | network_0/router_level2_2 | Using precomputed lookahead routing information for VC 0 at input 1 (front: 9).
6 | network_0/router_level2_2/buf_1/vc_0 | Changing state from idle to vc_alloc.
6 | network_0/router_level2_2 | Beginning VC allocation for VC 0 at input 0 (front: 3).
6 | network_0/router_level2_2 |   Requesting VC 0 at output 8 (in_pri: 0, out_pri: 0).
6 | network_0/router_level2_2 |   Requesting VC 1 at output 8 (in_pri: 0, out_pri: 0).
6 | network_0/router_level2_2 |   Requesting VC 2 at output 8 (in_pri: 0, out_pri: 0).
6 | network_0/router_level2_2 |   Requesting VC 3 at output 8 (in_pri: 0, out_pri: 0).
6 | network_0/router_level2_2 | Beginning VC allocation for VC 0 at input 1 (front: 9).
6 | network_0/router_level2_2 |   Requesting VC 0 at output 8 (in_pri: 0, out_pri: 0).
6 | network_0/router_level2_2 |   Requesting VC 1 at output 8 (in_pri: 0, out_pri: 0).
6 | network_0/router_level2_2 |   Requesting VC 2 at output 8 (in_pri: 0, out_pri: 0).
6 | network_0/router_level2_2 |   Requesting VC 3 at output 8 (in_pri: 0, out_pri: 0).
6 | network_0/router_level2_2/vc_allocator | Input requests = [ 0 -> [ 32@0 33@0 34@0 35@0 ]  4 -> [ 32@0 33@0 34@0 35@0 ]  16 -> [ 36@0 37@0 38@0 39@0 ]  24 -> [ 32@0 33@0 34@0 35@0 ]  28 -> [ 40@0 41@0 42@0 43@0 ]  ], output requests = [ 32 -> [ 0@0 4@0 24@0 ]  33 -> [ 0@0 4@0 24@0 ]  34 -> [ 0@0 4@0 24@0 ]  35 -> [ 0@0 4@0 24@0 ]  36 -> [ 16@0 ]  37 -> [ 16@0 ]  38 -> [ 16@0 ]  39 -> [ 16@0 ]  40 -> [ 28@0 ]  41 -> [ 28@0 ]  42 -> [ 28@0 ]  43 -> [ 28@0 ]  ].
6 | network_0/router_level2_2/vc_allocator | Input grants = [ 0 -> 32  16 -> 36  28 -> 40  ], output grants = [ 32 -> 0  36 -> 16  40 -> 28  ].
6 | network_0/router_level2_2 | Assigning VC 0 at output 8 to VC 0 at input 0.
6 | network_0/router_level2_2 | VC allocation failed for VC 0 at input 1.
6 | network_0/router_level2_2 | Completed VC allocation for VC 0 at input 0 (front: 3).
6 | network_0/router_level2_2 |   Acquiring assigned VC 0 at output 8.
6 | network_0/router_level2_2/buf_0/vc_0 | Changing state from vc_alloc to active.
6 | network_0/router_level2_2 | Completed VC allocation for VC 0 at input 1 (front: 9).
6 | network_0/router_level2_2 |   No output VC allocated.
6 | network_0/router_level2_4 | Adding flit 2 to VC 0 at input 0 (state: idle, empty).
6 | network_0/router_level2_4 | Using precomputed lookahead routing information for VC 0 at input 0 (front: 2).
6 | network_0/router_level2_4/buf_0/vc_0 | Changing state from idle to vc_alloc.
6 | network_0/router_level2_4 | Adding flit 7 to VC 0 at input 1 (state: idle, empty).
6 | network_0/router_level2_4 | Using precomputed lookahead routing information for VC 0 at input 1 (front: 7).
6 | network_0/router_level2_4/buf_1/vc_0 | Changing state from idle to vc_alloc.
6 | network_0/router_level2_4 | Beginning VC allocation for VC 0 at input 0 (front: 2).
6 | network_0/router_level2_4 |   Requesting VC 0 at output 15 (in_pri: 0, out_pri: 0).
6 | network_0/router_level2_4 |   Requesting VC 1 at output 15 (in_pri: 0, out_pri: 0).
6 | network_0/router_level2_4 |   Requesting VC 2 at output 15 (in_pri: 0, out_pri: 0).
6 | network_0/router_level2_4 |   Requesting VC 3 at output 15 (in_pri: 0, out_pri: 0).
6 | network_0/router_level2_4 | Beginning VC allocation for VC 0 at input 1 (front: 7).
6 | network_0/router_level2_4 |   Requesting VC 0 at output 9 (in_pri: 0, out_pri: 0).
6 | network_0/router_level2_4 |   Requesting VC 1 at output 9 (in_pri: 0, out_pri: 0).
6 | network_0/router_level2_4 |   Requesting VC 2 at output 9 (in_pri: 0, out_pri: 0).
6 | network_0/router_level2_4 |   Requesting VC 3 at output 9 (in_pri: 0, out_pri: 0).
6 | network_0/router_level2_4/vc_allocator | Input requests = [ 0 -> [ 60@0 61@0 62@0 63@0 ]  4 -> [ 36@0 37@0 38@0 39@0 ]  8 -> [ 52@0 53@0 54@0 55@0 ]  24 -> [ 44@0 45@0 46@0 47@0 ]  28 -> [ 36@0 37@0 38@0 39@0 ]  ], output requests = [ 36 -> [ 4@0 28@0 ]  37 -> [ 4@0 28@0 ]  38 -> [ 4@0 28@0 ]  39 -> [ 4@0 28@0 ]  44 -> [ 24@0 ]  45 -> [ 24@0 ]  46 -> [ 24@0 ]  47 -> [ 24@0 ]  52 -> [ 8@0 ]  53 -> [ 8@0 ]  54 -> [ 8@0 ]  55 -> [ 8@0 ]  60 -> [ 0@0 ]  61 -> [ 0@0 ]  62 -> [ 0@0 ]  63 -> [ 0@0 ]  ].
6 | network_0/router_level2_4/vc_allocator | Input grants = [ 0 -> 60  4 -> 36  8 -> 52  24 -> 44  ], output grants = [ 36 -> 4  44 -> 24  52 -> 8  60 -> 0  ].
6 | network_0/router_level2_4 | Assigning VC 0 at output 15 to VC 0 at input 0.
6 | network_0/router_level2_4 | Assigning VC 0 at output 9 to VC 0 at input 1.
6 | network_0/router_level2_4 | Completed VC allocation for VC 0 at input 0 (front: 2).
6 | network_0/router_level2_4 |   Acquiring assigned VC 0 at output 15.
6 | network_0/router_level2_4/buf_0/vc_0 | Changing state from vc_alloc to active.
6 | network_0/router_level2_4 | Completed VC allocation for VC 0 at input 1 (front: 7).
6 | network_0/router_level2_4 |   Acquiring assigned VC 0 at output 9.
6 | network_0/router_level2_4/buf_1/vc_0 | Changing state from vc_alloc to active.
6 | network_0/router_level2_6 | Adding flit 4 to VC 0 at input 0 (state: idle, empty).
6 | network_0/router_level2_6 | Using precomputed lookahead routing information for VC 0 at input 0 (front: 4).
6 | network_0/router_level2_6/buf_0/vc_0 | Changing state from idle to vc_alloc.
6 | network_0/router_level2_6 | Adding flit 6 to VC 0 at input 1 (state: idle, empty).
6 | network_0/router_level2_6 | Using precomputed lookahead routing information for VC 0 at input 1 (front: 6).
6 | network_0/router_level2_6/buf_1/vc_0 | Changing state from idle to vc_alloc.
6 | network_0/router_level2_6 | Beginning VC allocation for VC 0 at input 0 (front: 4).
6 | network_0/router_level2_6 |   Requesting VC 0 at output 8 (in_pri: 0, out_pri: 0).
6 | network_0/router_level2_6 |   Requesting VC 1 at output 8 (in_pri: 0, out_pri: 0).
6 | network_0/router_level2_6 |   Requesting VC 2 at output 8 (in_pri: 0, out_pri: 0).
6 | network_0/router_level2_6 |   Requesting VC 3 at output 8 (in_pri: 0, out_pri: 0).
6 | network_0/router_level2_6 | Beginning VC allocation for VC 0 at input 1 (front: 6).
6 | network_0/router_level2_6 |   Requesting VC 0 at output 13 (in_pri: 0, out_pri: 0).
6 | network_0/router_level2_6 |   Requesting VC 1 at output 13 (in_pri: 0, out_pri: 0).
6 | network_0/router_level2_6 |   Requesting VC 2 at output 13 (in_pri: 0, out_pri: 0).
6 | network_0/router_level2_6 |   Requesting VC 3 at output 13 (in_pri: 0, out_pri: 0).
6 | network_0/router_level2_6/vc_allocator | Input requests = [ 0 -> [ 32@0 33@0 34@0 35@0 ]  4 -> [ 52@0 53@0 54@0 55@0 ]  8 -> [ 56@0 57@0 58@0 59@0 ]  12 -> [ 48@0 49@0 50@0 51@0 ]  16 -> [ 40@0 41@0 42@0 43@0 ]  20 -> [ 52@0 53@0 54@0 55@0 ]  24 -> [ 36@0 37@0 38@0 39@0 ]  ], output requests = [ 32 -> [ 0@0 ]  33 -> [ 0@0 ]  34 -> [ 0@0 ]  35 -> [ 0@0 ]  36 -> [ 24@0 ]  37 -> [ 24@0 ]  38 -> [ 24@0 ]  39 -> [ 24@0 ]  40 -> [ 16@0 ]  41 -> [ 16@0 ]  42 -> [ 16@0 ]  43 -> [ 16@0 ]  48 -> [ 12@0 ]  49 -> [ 12@0 ]  50 -> [ 12@0 ]  51 -> [ 12@0 ]  52 -> [ 4@0 20@0 ]  53 -> [ 4@0 20@0 ]  54 -> [ 4@0 20@0 ]  55 -> [ 4@0 20@0 ]  56 -> [ 8@0 ]  57 -> [ 8@0 ]  58 -> [ 8@0 ]  59 -> [ 8@0 ]  ].
6 | network_0/router_level2_6/vc_allocator | Input grants = [ 0 -> 32  4 -> 52  8 -> 56  12 -> 48  16 -> 40  24 -> 36  ], output grants = [ 32 -> 0  36 -> 24  40 -> 16  48 -> 12  52 -> 4  56 -> 8  ].
6 | network_0/router_level2_6 | Assigning VC 0 at output 8 to VC 0 at input 0.
6 | network_0/router_level2_6 | Assigning VC 0 at output 13 to VC 0 at input 1.
6 | network_0/router_level2_6 | Completed VC allocation for VC 0 at input 0 (front: 4).
6 | network_0/router_level2_6 |   Acquiring assigned VC 0 at output 8.
6 | network_0/router_level2_6/buf_0/vc_0 | Changing state from vc_alloc to active.
6 | network_0/router_level2_6 | Completed VC allocation for VC 0 at input 1 (front: 6).
6 | network_0/router_level2_6 |   Acquiring assigned VC 0 at output 13.
6 | network_0/router_level2_6/buf_1/vc_0 | Changing state from vc_alloc to active.
6 | network_0/router_level2_7 | Adding flit 5 to VC 0 at input 0 (state: idle, empty).
6 | network_0/router_level2_7 | Using precomputed lookahead routing information for VC 0 at input 0 (front: 5).
6 | network_0/router_level2_7/buf_0/vc_0 | Changing state from idle to vc_alloc.
6 | network_0/router_level2_7 | Beginning VC allocation for VC 0 at input 0 (front: 5).
6 | network_0/router_level2_7 |   Requesting VC 0 at output 8 (in_pri: 0, out_pri: 0).
6 | network_0/router_level2_7 |   Requesting VC 1 at output 8 (in_pri: 0, out_pri: 0).
6 | network_0/router_level2_7 |   Requesting VC 2 at output 8 (in_pri: 0, out_pri: 0).
6 | network_0/router_level2_7 |   Requesting VC 3 at output 8 (in_pri: 0, out_pri: 0).
6 | network_0/router_level2_7/vc_allocator | Input requests = [ 0 -> [ 32@0 33@0 34@0 35@0 ]  4 -> [ 56@0 57@0 58@0 59@0 ]  8 -> [ 32@0 33@0 34@0 35@0 ]  12 -> [ 56@0 57@0 58@0 59@0 ]  28 -> [ 32@0 33@0 34@0 35@0 ]  ], output requests = [ 32 -> [ 0@0 8@0 28@0 ]  33 -> [ 0@0 8@0 28@0 ]  34 -> [ 0@0 8@0 28@0 ]  35 -> [ 0@0 8@0 28@0 ]  56 -> [ 4@0 12@0 ]  57 -> [ 4@0 12@0 ]  58 -> [ 4@0 12@0 ]  59 -> [ 4@0 12@0 ]  ].
6 | network_0/router_level2_7/vc_allocator | Input grants = [ 0 -> 32  4 -> 56  ], output grants = [ 32 -> 0  56 -> 4  ].
6 | network_0/router_level2_7 | Assigning VC 0 at output 8 to VC 0 at input 0.
6 | network_0/router_level2_7 | Completed VC allocation for VC 0 at input 0 (front: 5).
6 | network_0/router_level2_7 |   Acquiring assigned VC 0 at output 8.
6 | network_0/router_level2_7/buf_0/vc_0 | Changing state from vc_alloc to active.
6 | network_0/network_0_fchan_20494 | Completed channel traversal for flit 8.
7 | network_0/router_level2_6 | Received flit 8 from channel at input 1.
7 | network_0/router_level2_0 | Beginning switch allocation for VC 0 at input 0 (front: 1).
7 | network_0/router_level2_0 |   Requesting output 15.0 (non-spec, pri: 0).
7 | network_0/router_level2_0/sw_allocator | Input requests = [ 0 -> [ 15@0 ]  1 -> [ 9@0 ]  2 -> [ 14@0 ]  ], output requests = [ 9 -> [ 1@0 ]  14 -> [ 2@0 ]  15 -> [ 0@0 ]  ].
7 | network_0/router_level2_0/sw_allocator | Input grants = [ 0 -> 15  1 -> 9  2 -> 14  ], output grants = [ 9 -> 1  14 -> 2  15 -> 0  ].
7 | network_0/router_level2_0 | Assigning output 15.0 to VC 0 at input 0.0.
7 | network_0/router_level2_0 | Completed switch allocation for VC 0 at input 0 (front: 1).
7 | network_0/router_level2_0 |   Scheduling switch connection from input 0.0 to output 15.0.
7 | network_0/router_level2_0 | Updating lookahead routing information for flit 1.
7 | network_0/router_level2_1 | Beginning VC allocation for VC 0 at input 1 (front: 10).
7 | network_0/router_level2_1 |   VC 0 at output 8 is in use by VC 0 at input 0 (front flit: 0).
7 | network_0/router_level2_1 |   Requesting VC 1 at output 8 (in_pri: 0, out_pri: 0).
7 | network_0/router_level2_1 |   Requesting VC 2 at output 8 (in_pri: 0, out_pri: 0).
7 | network_0/router_level2_1 |   Requesting VC 3 at output 8 (in_pri: 0, out_pri: 0).
7 | network_0/router_level2_1/vc_allocator | Input requests = [ 1 -> [ 48@0 49@0 50@0 51@0 ]  4 -> [ 33@0 34@0 35@0 ]  12 -> [ 40@0 41@0 42@0 43@0 ]  21 -> [ 40@0 41@0 42@0 43@0 ]  24 -> [ 33@0 34@0 35@0 ]  25 -> [ 33@0 34@0 35@0 ]  29 -> [ 52@0 53@0 54@0 55@0 ]  ], output requests = [ 33 -> [ 4@0 24@0 25@0 ]  34 -> [ 4@0 24@0 25@0 ]  35 -> [ 4@0 24@0 25@0 ]  40 -> [ 12@0 21@0 ]  41 -> [ 12@0 21@0 ]  42 -> [ 12@0 21@0 ]  43 -> [ 12@0 21@0 ]  48 -> [ 1@0 ]  49 -> [ 1@0 ]  50 -> [ 1@0 ]  51 -> [ 1@0 ]  52 -> [ 29@0 ]  53 -> [ 29@0 ]  54 -> [ 29@0 ]  55 -> [ 29@0 ]  ].
7 | network_0/router_level2_1/vc_allocator | Input grants = [ 1 -> 48  4 -> 33  12 -> 40  29 -> 52  ], output grants = [ 33 -> 4  40 -> 12  48 -> 1  52 -> 29  ].
7 | network_0/router_level2_1 | Assigning VC 1 at output 8 to VC 0 at input 1.
7 | network_0/router_level2_1 | Completed VC allocation for VC 0 at input 1 (front: 10).
7 | network_0/router_level2_1 |   Acquiring assigned VC 1 at output 8.
7 | network_0/router_level2_1/buf_1/vc_0 | Changing state from vc_alloc to active.
7 | network_0/router_level2_2 | Beginning VC allocation for VC 0 at input 1 (front: 9).
7 | network_0/router_level2_2 |   VC 0 at output 8 is in use by VC 0 at input 0 (front flit: 3).
7 | network_0/router_level2_2 |   Requesting VC 1 at output 8 (in_pri: 0, out_pri: 0).
7 | network_0/router_level2_2 |   Requesting VC 2 at output 8 (in_pri: 0, out_pri: 0).
7 | network_0/router_level2_2 |   Requesting VC 3 at output 8 (in_pri: 0, out_pri: 0).
7 | network_0/router_level2_2/vc_allocator | Input requests = [ 4 -> [ 33@0 34@0 35@0 ]  5 -> [ 41@0 42@0 43@0 ]  24 -> [ 33@0 34@0 35@0 ]  29 -> [ 37@0 38@0 39@0 ]  ], output requests = [ 33 -> [ 4@0 24@0 ]  34 -> [ 4@0 24@0 ]  35 -> [ 4@0 24@0 ]  37 -> [ 29@0 ]  38 -> [ 29@0 ]  39 -> [ 29@0 ]  41 -> [ 5@0 ]  42 -> [ 5@0 ]  43 -> [ 5@0 ]  ].
7 | network_0/router_level2_2/vc_allocator | Input grants = [ 4 -> 33  5 -> 41  29 -> 37  ], output grants = [ 33 -> 4  37 -> 29  41 -> 5  ].
7 | network_0/router_level2_2 | Assigning VC 1 at output 8 to VC 0 at input 1.
7 | network_0/router_level2_2 | Beginning switch allocation for VC 0 at input 0 (front: 3).
7 | network_0/router_level2_2 |   Requesting output 8.0 (non-spec, pri: 0).
7 | network_0/router_level2_2/sw_allocator | Input requests = [ 0 -> [ 8@0 ]  4 -> [ 9@0 ]  7 -> [ 10@0 ]  ], output requests = [ 8 -> [ 0@0 ]  9 -> [ 4@0 ]  10 -> [ 7@0 ]  ].
7 | network_0/router_level2_2/sw_allocator | Input grants = [ 0 -> 8  4 -> 9  7 -> 10  ], output grants = [ 8 -> 0  9 -> 4  10 -> 7  ].
7 | network_0/router_level2_2 | Assigning output 8.0 to VC 0 at input 0.0.
7 | network_0/router_level2_2 | Completed VC allocation for VC 0 at input 1 (front: 9).
7 | network_0/router_level2_2 |   Acquiring assigned VC 1 at output 8.
7 | network_0/router_level2_2/buf_1/vc_0 | Changing state from vc_alloc to active.
7 | network_0/router_level2_2 | Completed switch allocation for VC 0 at input 0 (front: 3).
7 | network_0/router_level2_2 |   Scheduling switch connection from input 0.0 to output 8.0.
7 | network_0/router_level2_2 | Updating lookahead routing information for flit 3.
7 | network_0/router_level2_4 | Beginning switch allocation for VC 0 at input 0 (front: 2).
7 | network_0/router_level2_4 |   Requesting output 15.0 (non-spec, pri: 0).
7 | network_0/router_level2_4 | Beginning switch allocation for VC 0 at input 1 (front: 7).
7 | network_0/router_level2_4 |   Requesting output 9.0 (non-spec, pri: 0).
7 | network_0/router_level2_4/sw_allocator | Input requests = [ 0 -> [ 15@0 ]  1 -> [ 9@0 ]  2 -> [ 13@0 ]  6 -> [ 11@0 ]  ], output requests = [ 9 -> [ 1@0 ]  11 -> [ 6@0 ]  13 -> [ 2@0 ]  15 -> [ 0@0 ]  ].
7 | network_0/router_level2_4/sw_allocator | Input grants = [ 0 -> 15  1 -> 9  2 -> 13  6 -> 11  ], output grants = [ 9 -> 1  11 -> 6  13 -> 2  15 -> 0  ].
7 | network_0/router_level2_4 | Assigning output 15.0 to VC 0 at input 0.0.
7 | network_0/router_level2_4 | Assigning output 9.0 to VC 0 at input 1.0.
7 | network_0/router_level2_4 | Completed switch allocation for VC 0 at input 0 (front: 2).
7 | network_0/router_level2_4 |   Scheduling switch connection from input 0.0 to output 15.0.
7 | network_0/router_level2_4 | Updating lookahead routing information for flit 2.
7 | network_0/router_level2_4 | Completed switch allocation for VC 0 at input 1 (front: 7).
7 | network_0/router_level2_4 |   Scheduling switch connection from input 1.0 to output 9.0.
7 | network_0/router_level2_4 | Updating lookahead routing information for flit 7.
7 | network_0/router_level2_6 | Adding flit 8 to VC 1 at input 1 (state: idle, empty).
7 | network_0/router_level2_6 | Using precomputed lookahead routing information for VC 1 at input 1 (front: 8).
7 | network_0/router_level2_6/buf_1/vc_1 | Changing state from idle to vc_alloc.
7 | network_0/router_level2_6 | Beginning VC allocation for VC 1 at input 1 (front: 8).
7 | network_0/router_level2_6 |   VC 0 at output 12 is in use by VC 0 at input 3 (front flit: 22).
7 | network_0/router_level2_6 |   Requesting VC 1 at output 12 (in_pri: 0, out_pri: 0).
7 | network_0/router_level2_6 |   Requesting VC 2 at output 12 (in_pri: 0, out_pri: 0).
7 | network_0/router_level2_6 |   Requesting VC 3 at output 12 (in_pri: 0, out_pri: 0).
7 | network_0/router_level2_6/vc_allocator | Input requests = [ 1 -> [ 41@0 42@0 43@0 ]  5 -> [ 49@0 50@0 51@0 ]  9 -> [ 53@0 54@0 55@0 ]  13 -> [ 44@0 45@0 46@0 47@0 ]  17 -> [ 44@0 45@0 46@0 47@0 ]  20 -> [ 53@0 54@0 55@0 ]  21 -> [ 44@0 45@0 46@0 47@0 ]  ], output requests = [ 41 -> [ 1@0 ]  42 -> [ 1@0 ]  43 -> [ 1@0 ]  44 -> [ 13@0 17@0 21@0 ]  45 -> [ 13@0 17@0 21@0 ]  46 -> [ 13@0 17@0 21@0 ]  47 -> [ 13@0 17@0 21@0 ]  49 -> [ 5@0 ]  50 -> [ 5@0 ]  51 -> [ 5@0 ]  53 -> [ 9@0 20@0 ]  54 -> [ 9@0 20@0 ]  55 -> [ 9@0 20@0 ]  ].
7 | network_0/router_level2_6/vc_allocator | Input grants = [ 1 -> 41  5 -> 49  9 -> 53  13 -> 44  ], output grants = [ 41 -> 1  44 -> 13  49 -> 5  53 -> 9  ].
7 | network_0/router_level2_6 | Assigning VC 1 at output 12 to VC 1 at input 1.
7 | network_0/router_level2_6 | Beginning switch allocation for VC 0 at input 0 (front: 4).
7 | network_0/router_level2_6 |   Requesting output 8.0 (non-spec, pri: 0).
7 | network_0/router_level2_6 | Beginning switch allocation for VC 0 at input 1 (front: 6).
7 | network_0/router_level2_6 |   Requesting output 13.0 (non-spec, pri: 0).
7 | network_0/router_level2_6/sw_allocator | Input requests = [ 0 -> [ 8@0 ]  1 -> [ 13@0 ]  2 -> [ 14@0 ]  3 -> [ 12@0 ]  4 -> [ 10@0 ]  6 -> [ 9@0 ]  ], output requests = [ 8 -> [ 0@0 ]  9 -> [ 6@0 ]  10 -> [ 4@0 ]  12 -> [ 3@0 ]  13 -> [ 1@0 ]  14 -> [ 2@0 ]  ].
7 | network_0/router_level2_6/sw_allocator | Input grants = [ 0 -> 8  1 -> 13  2 -> 14  3 -> 12  4 -> 10  6 -> 9  ], output grants = [ 8 -> 0  9 -> 6  10 -> 4  12 -> 3  13 -> 1  14 -> 2  ].
7 | network_0/router_level2_6 | Assigning output 8.0 to VC 0 at input 0.0.
7 | network_0/router_level2_6 | Assigning output 13.0 to VC 0 at input 1.0.
7 | network_0/router_level2_6 | Completed VC allocation for VC 1 at input 1 (front: 8).
7 | network_0/router_level2_6 |   Acquiring assigned VC 1 at output 12.
7 | network_0/router_level2_6/buf_1/vc_1 | Changing state from vc_alloc to active.
7 | network_0/router_level2_6 | Completed switch allocation for VC 0 at input 0 (front: 4).
7 | network_0/router_level2_6 |   Scheduling switch connection from input 0.0 to output 8.0.
7 | network_0/router_level2_6 | Updating lookahead routing information for flit 4.
7 | network_0/router_level2_6 | Completed switch allocation for VC 0 at input 1 (front: 6).
7 | network_0/router_level2_6 |   Scheduling switch connection from input 1.0 to output 13.0.
7 | network_0/router_level2_6 | Updating lookahead routing information for flit 6.
7 | network_0/router_level2_7 | Beginning switch allocation for VC 0 at input 0 (front: 5).
7 | network_0/router_level2_7 |   Requesting output 8.0 (non-spec, pri: 0).
7 | network_0/router_level2_7/sw_allocator | Input requests = [ 0 -> [ 8@0 ]  1 -> [ 14@0 ]  ], output requests = [ 8 -> [ 0@0 ]  14 -> [ 1@0 ]  ].
7 | network_0/router_level2_7/sw_allocator | Input grants = [ 0 -> 8  1 -> 14  ], output grants = [ 8 -> 0  14 -> 1  ].
7 | network_0/router_level2_7 | Assigning output 8.0 to VC 0 at input 0.0.
7 | network_0/router_level2_7 | Completed switch allocation for VC 0 at input 0 (front: 5).
7 | network_0/router_level2_7 |   Scheduling switch connection from input 0.0 to output 8.0.
7 | network_0/router_level2_7 | Updating lookahead routing information for flit 5.
8 | network_0/router_level2_0 | Beginning crossbar traversal for flit 1 from input 0.0 to output 15.0.
8 | network_0/router_level2_0 | Completed crossbar traversal for flit 1 from input 0.0 to output 15.0.
8 | network_0/router_level2_0 | Buffering flit 1 at output 15.
8 | network_0/router_level2_1 | Beginning switch allocation for VC 0 at input 1 (front: 10).
8 | network_0/router_level2_1 |   Requesting output 8.0 (non-spec, pri: 0).
8 | network_0/router_level2_1/sw_allocator | Input requests = [ 0 -> [ 12@0 ]  1 -> [ 8@0 ]  3 -> [ 10@0 ]  7 -> [ 13@0 ]  ], output requests = [ 8 -> [ 1@0 ]  10 -> [ 3@0 ]  12 -> [ 0@0 ]  13 -> [ 7@0 ]  ].
8 | network_0/router_level2_1/sw_allocator | Input grants = [ 0 -> 12  1 -> 8  3 -> 10  7 -> 13  ], output grants = [ 8 -> 1  10 -> 3  12 -> 0  13 -> 7  ].
8 | network_0/router_level2_1 | Assigning output 8.0 to VC 0 at input 1.0.
8 | network_0/router_level2_1 | Completed switch allocation for VC 0 at input 1 (front: 10).
8 | network_0/router_level2_1 |   Scheduling switch connection from input 1.0 to output 8.0.
8 | network_0/router_level2_1 | Updating lookahead routing information for flit 10.
8 | network_0/router_level2_2 | Beginning switch allocation for VC 0 at input 1 (front: 9).
8 | network_0/router_level2_2 |   Requesting output 8.0 (non-spec, pri: 0).
8 | network_0/router_level2_2/sw_allocator | Input requests = [ 1 -> [ 8@0 10@0 ]  7 -> [ 9@0 ]  ], output requests = [ 8 -> [ 1@0 ]  9 -> [ 7@0 ]  10 -> [ 1@0 ]  ].
8 | network_0/router_level2_2/sw_allocator | Input grants = [ 1 -> 8  7 -> 9  ], output grants = [ 8 -> 1  9 -> 7  ].
8 | network_0/router_level2_2 | Assigning output 8.0 to VC 0 at input 1.0.
8 | network_0/router_level2_2 | Beginning crossbar traversal for flit 3 from input 0.0 to output 8.0.
8 | network_0/router_level2_2 | Completed switch allocation for VC 0 at input 1 (front: 9).
8 | network_0/router_level2_2 |   Scheduling switch connection from input 1.0 to output 8.0.
8 | network_0/router_level2_2 | Updating lookahead routing information for flit 9.
8 | network_0/router_level2_2 | Completed crossbar traversal for flit 3 from input 0.0 to output 8.0.
8 | network_0/router_level2_2 | Buffering flit 3 at output 8.
8 | network_0/router_level2_4 | Beginning crossbar traversal for flit 2 from input 0.0 to output 15.0.
8 | network_0/router_level2_4 | Beginning crossbar traversal for flit 7 from input 1.0 to output 9.0.
8 | network_0/router_level2_4 | Completed crossbar traversal for flit 2 from input 0.0 to output 15.0.
8 | network_0/router_level2_4 | Buffering flit 2 at output 15.
8 | network_0/router_level2_4 | Completed crossbar traversal for flit 7 from input 1.0 to output 9.0.
8 | network_0/router_level2_4 | Buffering flit 7 at output 9.
8 | network_0/router_level2_6 | Beginning switch allocation for VC 1 at input 1 (front: 8).
8 | network_0/router_level2_6 |   Requesting output 12.0 (non-spec, pri: 0).
8 | network_0/router_level2_6/sw_allocator | Input requests = [ 0 -> [ 10@0 ]  1 -> [ 12@0 ]  2 -> [ 13@0 ]  3 -> [ 11@0 ]  ], output requests = [ 10 -> [ 0@0 ]  11 -> [ 3@0 ]  12 -> [ 1@0 ]  13 -> [ 2@0 ]  ].
8 | network_0/router_level2_6/sw_allocator | Input grants = [ 0 -> 10  1 -> 12  2 -> 13  3 -> 11  ], output grants = [ 10 -> 0  11 -> 3  12 -> 1  13 -> 2  ].
8 | network_0/router_level2_6 | Assigning output 12.0 to VC 1 at input 1.0.
8 | network_0/router_level2_6 | Beginning crossbar traversal for flit 4 from input 0.0 to output 8.0.
8 | network_0/router_level2_6 | Beginning crossbar traversal for flit 6 from input 1.0 to output 13.0.
8 | network_0/router_level2_6 | Completed switch allocation for VC 1 at input 1 (front: 8).
8 | network_0/router_level2_6 |   Scheduling switch connection from input 1.0 to output 12.0.
8 | network_0/router_level2_6 | Updating lookahead routing information for flit 8.
8 | network_0/router_level2_6 | Completed crossbar traversal for flit 4 from input 0.0 to output 8.0.
8 | network_0/router_level2_6 | Buffering flit 4 at output 8.
8 | network_0/router_level2_6 | Completed crossbar traversal for flit 6 from input 1.0 to output 13.0.
8 | network_0/router_level2_6 | Buffering flit 6 at output 13.
8 | network_0/router_level2_7 | Beginning crossbar traversal for flit 5 from input 0.0 to output 8.0.
8 | network_0/router_level2_7 | Completed crossbar traversal for flit 5 from input 0.0 to output 8.0.
8 | network_0/router_level2_7 | Buffering flit 5 at output 8.
8 | network_0/router_level2_0 | Sending flit 1 to channel at output 15.
8 | network_0/router_level2_2 | Sending flit 3 to channel at output 8.
8 | network_0/router_level2_4 | Sending flit 7 to channel at output 9.
8 | network_0/router_level2_4 | Sending flit 2 to channel at output 15.
8 | network_0/router_level2_6 | Sending flit 4 to channel at output 8.
8 | network_0/router_level2_6 | Sending flit 6 to channel at output 13.
8 | network_0/router_level2_7 | Sending flit 5 to channel at output 8.
9 | network_0/network_0_fchan_12295 | Beginning channel traversal for flit 1 with delay 1.
9 | network_0/network_0_fchan_12304 | Beginning channel traversal for flit 3 with delay 1.
9 | network_0/network_0_fchan_12321 | Beginning channel traversal for flit 7 with delay 1.
9 | network_0/network_0_fchan_12327 | Beginning channel traversal for flit 2 with delay 1.
9 | network_0/network_0_fchan_12336 | Beginning channel traversal for flit 4 with delay 1.
9 | network_0/network_0_fchan_12341 | Beginning channel traversal for flit 6 with delay 1.
9 | network_0/network_0_fchan_12344 | Beginning channel traversal for flit 5 with delay 1.
9 | network_0/router_level2_1 | Beginning crossbar traversal for flit 10 from input 1.0 to output 8.0.
9 | network_0/router_level2_1 | Completed crossbar traversal for flit 10 from input 1.0 to output 8.0.
9 | network_0/router_level2_1 | Buffering flit 10 at output 8.
9 | network_0/router_level2_2 | Beginning crossbar traversal for flit 9 from input 1.0 to output 8.0.
9 | network_0/router_level2_2 | Completed crossbar traversal for flit 9 from input 1.0 to output 8.0.
9 | network_0/router_level2_2 | Buffering flit 9 at output 8.
9 | network_0/router_level2_6 | Beginning crossbar traversal for flit 8 from input 1.0 to output 12.0.
9 | network_0/router_level2_6 | Completed crossbar traversal for flit 8 from input 1.0 to output 12.0.
9 | network_0/router_level2_6 | Buffering flit 8 at output 12.
9 | network_0/network_0_fchan_12295 | Completed channel traversal for flit 1.
9 | network_0/network_0_fchan_12304 | Completed channel traversal for flit 3.
9 | network_0/network_0_fchan_12321 | Completed channel traversal for flit 7.
9 | network_0/network_0_fchan_12327 | Completed channel traversal for flit 2.
9 | network_0/network_0_fchan_12336 | Completed channel traversal for flit 4.
9 | network_0/network_0_fchan_12341 | Completed channel traversal for flit 6.
9 | network_0/network_0_fchan_12344 | Completed channel traversal for flit 5.
9 | network_0/router_level2_1 | Sending flit 10 to channel at output 8.
9 | network_0/router_level2_2 | Sending flit 9 to channel at output 8.
9 | network_0/router_level2_6 | Sending flit 8 to channel at output 12.
10 | network_0/network_0_fchan_12296 | Beginning channel traversal for flit 10 with delay 1.
10 | network_0/network_0_fchan_12304 | Beginning channel traversal for flit 9 with delay 1.
10 | network_0/network_0_fchan_12340 | Beginning channel traversal for flit 8 with delay 1.
10 | network_0/router_level1_2 | Received flit 3 from channel at input 0.
10 | network_0/router_level1_6 | Received flit 4 from channel at input 0.
10 | network_0/router_level1_7 | Received flit 5 from channel at input 0.
10 | network_0/router_level1_12 | Received flit 7 from channel at input 0.
10 | network_0/router_level1_46 | Received flit 6 from channel at input 0.
10 | network_0/router_level1_56 | Received flit 1 from channel at input 0.
10 | network_0/router_level1_60 | Received flit 2 from channel at input 0.
10 | network_0/router_level1_2 | Adding flit 3 to VC 0 at input 0 (state: idle, empty).
10 | network_0/router_level1_2 | Using precomputed lookahead routing information for VC 0 at input 0 (front: 3).
10 | network_0/router_level1_2/buf_0/vc_0 | Changing state from idle to vc_alloc.
10 | network_0/router_level1_2 | Beginning VC allocation for VC 0 at input 0 (front: 3).
10 | network_0/router_level1_2 |   Requesting VC 0 at output 9 (in_pri: 0, out_pri: 0).
10 | network_0/router_level1_2 |   Requesting VC 1 at output 9 (in_pri: 0, out_pri: 0).
10 | network_0/router_level1_2 |   Requesting VC 2 at output 9 (in_pri: 0, out_pri: 0).
10 | network_0/router_level1_2 |   Requesting VC 3 at output 9 (in_pri: 0, out_pri: 0).
10 | network_0/router_level1_2/vc_allocator | Input requests = [ 0 -> [ 36@0 37@0 38@0 39@0 ]  12 -> [ 32@0 33@0 34@0 35@0 ]  16 -> [ 32@0 33@0 34@0 35@0 ]  ], output requests = [ 32 -> [ 12@0 16@0 ]  33 -> [ 12@0 16@0 ]  34 -> [ 12@0 16@0 ]  35 -> [ 12@0 16@0 ]  36 -> [ 0@0 ]  37 -> [ 0@0 ]  38 -> [ 0@0 ]  39 -> [ 0@0 ]  ].
10 | network_0/router_level1_2/vc_allocator | Input grants = [ 0 -> 36  12 -> 32  ], output grants = [ 32 -> 12  36 -> 0  ].
10 | network_0/router_level1_2 | Assigning VC 0 at output 9 to VC 0 at input 0.
10 | network_0/router_level1_2 | Completed VC allocation for VC 0 at input 0 (front: 3).
10 | network_0/router_level1_2 |   Acquiring assigned VC 0 at output 9.
10 | network_0/router_level1_2/buf_0/vc_0 | Changing state from vc_alloc to active.
10 | network_0/router_level1_6 | Adding flit 4 to VC 0 at input 0 (state: idle, empty).
10 | network_0/router_level1_6 | Using precomputed lookahead routing information for VC 0 at input 0 (front: 4).
10 | network_0/router_level1_6/buf_0/vc_0 | Changing state from idle to vc_alloc.
10 | network_0/router_level1_6 | Beginning VC allocation for VC 0 at input 0 (front: 4).
10 | network_0/router_level1_6 |   Requesting VC 0 at output 8 (in_pri: 0, out_pri: 0).
10 | network_0/router_level1_6 |   Requesting VC 1 at output 8 (in_pri: 0, out_pri: 0).
10 | network_0/router_level1_6 |   Requesting VC 2 at output 8 (in_pri: 0, out_pri: 0).
10 | network_0/router_level1_6 |   Requesting VC 3 at output 8 (in_pri: 0, out_pri: 0).
10 | network_0/router_level1_6/vc_allocator | Input requests = [ 0 -> [ 32@0 33@0 34@0 35@0 ]  8 -> [ 36@0 37@0 38@0 39@0 ]  20 -> [ 32@0 33@0 34@0 35@0 ]  24 -> [ 36@0 37@0 38@0 39@0 ]  ], output requests = [ 32 -> [ 0@0 20@0 ]  33 -> [ 0@0 20@0 ]  34 -> [ 0@0 20@0 ]  35 -> [ 0@0 20@0 ]  36 -> [ 8@0 24@0 ]  37 -> [ 8@0 24@0 ]  38 -> [ 8@0 24@0 ]  39 -> [ 8@0 24@0 ]  ].
10 | network_0/router_level1_6/vc_allocator | Input grants = [ 0 -> 32  8 -> 36  ], output grants = [ 32 -> 0  36 -> 8  ].
10 | network_0/router_level1_6 | Assigning VC 0 at output 8 to VC 0 at input 0.
10 | network_0/router_level1_6 | Completed VC allocation for VC 0 at input 0 (front: 4).
10 | network_0/router_level1_6 |   Acquiring assigned VC 0 at output 8.
10 | network_0/router_level1_6/buf_0/vc_0 | Changing state from vc_alloc to active.
10 | network_0/router_level1_7 | Adding flit 5 to VC 0 at input 0 (state: idle, empty).
10 | network_0/router_level1_7 | Using precomputed lookahead routing information for VC 0 at input 0 (front: 5).
10 | network_0/router_level1_7/buf_0/vc_0 | Changing state from idle to vc_alloc.
10 | network_0/router_level1_7 | Beginning VC allocation for VC 0 at input 0 (front: 5).
10 | network_0/router_level1_7 |   Requesting VC 0 at output 8 (in_pri: 0, out_pri: 0).
10 | network_0/router_level1_7 |   Requesting VC 1 at output 8 (in_pri: 0, out_pri: 0).
10 | network_0/router_level1_7 |   Requesting VC 2 at output 8 (in_pri: 0, out_pri: 0).
10 | network_0/router_level1_7 |   Requesting VC 3 at output 8 (in_pri: 0, out_pri: 0).
10 | network_0/router_level1_7/vc_allocator | Input requests = [ 0 -> [ 32@0 33@0 34@0 35@0 ]  4 -> [ 32@0 33@0 34@0 35@0 ]  24 -> [ 36@0 37@0 38@0 39@0 ]  ], output requests = [ 32 -> [ 0@0 4@0 ]  33 -> [ 0@0 4@0 ]  34 -> [ 0@0 4@0 ]  35 -> [ 0@0 4@0 ]  36 -> [ 24@0 ]  37 -> [ 24@0 ]  38 -> [ 24@0 ]  39 -> [ 24@0 ]  ].
10 | network_0/router_level1_7/vc_allocator | Input grants = [ 0 -> 32  24 -> 36  ], output grants = [ 32 -> 0  36 -> 24  ].
10 | network_0/router_level1_7 | Assigning VC 0 at output 8 to VC 0 at input 0.
10 | network_0/router_level1_7 | Completed VC allocation for VC 0 at input 0 (front: 5).
10 | network_0/router_level1_7 |   Acquiring assigned VC 0 at output 8.
10 | network_0/router_level1_7/buf_0/vc_0 | Changing state from vc_alloc to active.
10 | network_0/router_level1_12 | Adding flit 7 to VC 0 at input 0 (state: idle, empty).
10 | network_0/router_level1_12 | Using precomputed lookahead routing information for VC 0 at input 0 (front: 7).
10 | network_0/router_level1_12/buf_0/vc_0 | Changing state from idle to vc_alloc.
10 | network_0/router_level1_12 | Beginning VC allocation for VC 0 at input 0 (front: 7).
10 | network_0/router_level1_12 |   Requesting VC 0 at output 8 (in_pri: 0, out_pri: 0).
10 | network_0/router_level1_12 |   Requesting VC 1 at output 8 (in_pri: 0, out_pri: 0).
10 | network_0/router_level1_12 |   Requesting VC 2 at output 8 (in_pri: 0, out_pri: 0).
10 | network_0/router_level1_12 |   Requesting VC 3 at output 8 (in_pri: 0, out_pri: 0).
10 | network_0/router_level1_12/vc_allocator | Input requests = [ 0 -> [ 32@0 33@0 34@0 35@0 ]  12 -> [ 32@0 33@0 34@0 35@0 ]  16 -> [ 36@0 37@0 38@0 39@0 ]  24 -> [ 32@0 33@0 34@0 35@0 ]  ], output requests = [ 32 -> [ 0@0 12@0 24@0 ]  33 -> [ 0@0 12@0 24@0 ]  34 -> [ 0@0 12@0 24@0 ]  35 -> [ 0@0 12@0 24@0 ]  36 -> [ 16@0 ]  37 -> [ 16@0 ]  38 -> [ 16@0 ]  39 -> [ 16@0 ]  ].
10 | network_0/router_level1_12/vc_allocator | Input grants = [ 0 -> 32  16 -> 36  ], output grants = [ 32 -> 0  36 -> 16  ].
10 | network_0/router_level1_12 | Assigning VC 0 at output 8 to VC 0 at input 0.
10 | network_0/router_level1_12 | Completed VC allocation for VC 0 at input 0 (front: 7).
10 | network_0/router_level1_12 |   Acquiring assigned VC 0 at output 8.
10 | network_0/router_level1_12/buf_0/vc_0 | Changing state from vc_alloc to active.
10 | network_0/router_level1_46 | Adding flit 6 to VC 0 at input 0 (state: idle, empty).
10 | network_0/router_level1_46 | Using precomputed lookahead routing information for VC 0 at input 0 (front: 6).
10 | network_0/router_level1_46/buf_0/vc_0 | Changing state from idle to vc_alloc.
10 | network_0/router_level1_46 | Beginning VC allocation for VC 0 at input 0 (front: 6).
10 | network_0/router_level1_46 |   Requesting VC 0 at output 9 (in_pri: 0, out_pri: 0).
10 | network_0/router_level1_46 |   Requesting VC 1 at output 9 (in_pri: 0, out_pri: 0).
10 | network_0/router_level1_46 |   Requesting VC 2 at output 9 (in_pri: 0, out_pri: 0).
10 | network_0/router_level1_46 |   Requesting VC 3 at output 9 (in_pri: 0, out_pri: 0).
10 | network_0/router_level1_46/vc_allocator | Input requests = [ 0 -> [ 36@0 37@0 38@0 39@0 ]  20 -> [ 32@0 33@0 34@0 35@0 ]  28 -> [ 36@0 37@0 38@0 39@0 ]  ], output requests = [ 32 -> [ 20@0 ]  33 -> [ 20@0 ]  34 -> [ 20@0 ]  35 -> [ 20@0 ]  36 -> [ 0@0 28@0 ]  37 -> [ 0@0 28@0 ]  38 -> [ 0@0 28@0 ]  39 -> [ 0@0 28@0 ]  ].
10 | network_0/router_level1_46/vc_allocator | Input grants = [ 0 -> 36  20 -> 32  ], output grants = [ 32 -> 20  36 -> 0  ].
10 | network_0/router_level1_46 | Assigning VC 0 at output 9 to VC 0 at input 0.
10 | network_0/router_level1_46 | Completed VC allocation for VC 0 at input 0 (front: 6).
10 | network_0/router_level1_46 |   Acquiring assigned VC 0 at output 9.
10 | network_0/router_level1_46/buf_0/vc_0 | Changing state from vc_alloc to active.
10 | network_0/router_level1_56 | Adding flit 1 to VC 0 at input 0 (state: idle, empty).
10 | network_0/router_level1_56 | Using precomputed lookahead routing information for VC 0 at input 0 (front: 1).
10 | network_0/router_level1_56/buf_0/vc_0 | Changing state from idle to vc_alloc.
10 | network_0/router_level1_56 | Beginning VC allocation for VC 0 at input 0 (front: 1).
10 | network_0/router_level1_56 |   Requesting VC 0 at output 8 (in_pri: 0, out_pri: 0).
10 | network_0/router_level1_56 |   Requesting VC 1 at output 8 (in_pri: 0, out_pri: 0).
10 | network_0/router_level1_56 |   Requesting VC 2 at output 8 (in_pri: 0, out_pri: 0).
10 | network_0/router_level1_56 |   Requesting VC 3 at output 8 (in_pri: 0, out_pri: 0).
10 | network_0/router_level1_56/vc_allocator | Input requests = [ 0 -> [ 32@0 33@0 34@0 35@0 ]  4 -> [ 32@0 33@0 34@0 35@0 ]  8 -> [ 36@0 37@0 38@0 39@0 ]  12 -> [ 32@0 33@0 34@0 35@0 ]  20 -> [ 36@0 37@0 38@0 39@0 ]  24 -> [ 36@0 37@0 38@0 39@0 ]  ], output requests = [ 32 -> [ 0@0 4@0 12@0 ]  33 -> [ 0@0 4@0 12@0 ]  34 -> [ 0@0 4@0 12@0 ]  35 -> [ 0@0 4@0 12@0 ]  36 -> [ 8@0 20@0 24@0 ]  37 -> [ 8@0 20@0 24@0 ]  38 -> [ 8@0 20@0 24@0 ]  39 -> [ 8@0 20@0 24@0 ]  ].
10 | network_0/router_level1_56/vc_allocator | Input grants = [ 0 -> 32  8 -> 36  ], output grants = [ 32 -> 0  36 -> 8  ].
10 | network_0/router_level1_56 | Assigning VC 0 at output 8 to VC 0 at input 0.
10 | network_0/router_level1_56 | Completed VC allocation for VC 0 at input 0 (front: 1).
10 | network_0/router_level1_56 |   Acquiring assigned VC 0 at output 8.
10 | network_0/router_level1_56/buf_0/vc_0 | Changing state from vc_alloc to active.
10 | network_0/router_level1_60 | Adding flit 2 to VC 0 at input 0 (state: idle, empty).
10 | network_0/router_level1_60 | Using precomputed lookahead routing information for VC 0 at input 0 (front: 2).
10 | network_0/router_level1_60/buf_0/vc_0 | Changing state from idle to vc_alloc.
10 | network_0/router_level1_60 | Beginning VC allocation for VC 0 at input 0 (front: 2).
10 | network_0/router_level1_60 |   Requesting VC 0 at output 8 (in_pri: 0, out_pri: 0).
10 | network_0/router_level1_60 |   Requesting VC 1 at output 8 (in_pri: 0, out_pri: 0).
10 | network_0/router_level1_60 |   Requesting VC 2 at output 8 (in_pri: 0, out_pri: 0).
10 | network_0/router_level1_60 |   Requesting VC 3 at output 8 (in_pri: 0, out_pri: 0).
10 | network_0/router_level1_60/vc_allocator | Input requests = [ 0 -> [ 32@0 33@0 34@0 35@0 ]  20 -> [ 32@0 33@0 34@0 35@0 ]  28 -> [ 36@0 37@0 38@0 39@0 ]  ], output requests = [ 32 -> [ 0@0 20@0 ]  33 -> [ 0@0 20@0 ]  34 -> [ 0@0 20@0 ]  35 -> [ 0@0 20@0 ]  36 -> [ 28@0 ]  37 -> [ 28@0 ]  38 -> [ 28@0 ]  39 -> [ 28@0 ]  ].
10 | network_0/router_level1_60/vc_allocator | Input grants = [ 0 -> 32  28 -> 36  ], output grants = [ 32 -> 0  36 -> 28  ].
10 | network_0/router_level1_60 | Assigning VC 0 at output 8 to VC 0 at input 0.
10 | network_0/router_level1_60 | Completed VC allocation for VC 0 at input 0 (front: 2).
10 | network_0/router_level1_60 |   Acquiring assigned VC 0 at output 8.
10 | network_0/router_level1_60/buf_0/vc_0 | Changing state from vc_alloc to active.
10 | network_0/network_0_fchan_12296 | Completed channel traversal for flit 10.
10 | network_0/network_0_fchan_12304 | Completed channel traversal for flit 9.
10 | network_0/network_0_fchan_12340 | Completed channel traversal for flit 8.
11 | network_0/router_level1_1 | Received flit 10 from channel at input 0.
11 | network_0/router_level1_2 | Received flit 9 from channel at input 0.
11 | network_0/router_level1_38 | Received flit 8 from channel at input 0.
11 | network_0/router_level1_1 | Adding flit 10 to VC 1 at input 0 (state: idle, empty).
11 | network_0/router_level1_1 | Using precomputed lookahead routing information for VC 1 at input 0 (front: 10).
11 | network_0/router_level1_1/buf_0/vc_1 | Changing state from idle to vc_alloc.
11 | network_0/router_level1_1 | Beginning VC allocation for VC 1 at input 0 (front: 10).
11 | network_0/router_level1_1 |   VC 0 at output 9 is in use by VC 0 at input 2 (front flit: 108).
11 | network_0/router_level1_1 |   Requesting VC 1 at output 9 (in_pri: 0, out_pri: 0).
11 | network_0/router_level1_1 |   Requesting VC 2 at output 9 (in_pri: 0, out_pri: 0).
11 | network_0/router_level1_1 |   Requesting VC 3 at output 9 (in_pri: 0, out_pri: 0).
11 | network_0/router_level1_1/vc_allocator | Input requests = [ 1 -> [ 37@0 38@0 39@0 ]  12 -> [ 37@0 38@0 39@0 ]  16 -> [ 33@0 34@0 35@0 ]  17 -> [ 33@0 34@0 35@0 ]  20 -> [ 37@0 38@0 39@0 ]  21 -> [ 37@0 38@0 39@0 ]  24 -> [ 37@0 38@0 39@0 ]  25 -> [ 37@0 38@0 39@0 ]  28 -> [ 37@0 38@0 39@0 ]  29 -> [ 33@0 34@0 35@0 ]  ], output requests = [ 33 -> [ 16@0 17@0 29@0 ]  34 -> [ 16@0 17@0 29@0 ]  35 -> [ 16@0 17@0 29@0 ]  37 -> [ 1@0 12@0 20@0 21@0 24@0 25@0 28@0 ]  38 -> [ 1@0 12@0 20@0 21@0 24@0 25@0 28@0 ]  39 -> [ 1@0 12@0 20@0 21@0 24@0 25@0 28@0 ]  ].
11 | network_0/router_level1_1/vc_allocator | Input grants = [ 1 -> 37  16 -> 33  ], output grants = [ 33 -> 16  37 -> 1  ].
11 | network_0/router_level1_1 | Assigning VC 1 at output 9 to VC 1 at input 0.
11 | network_0/router_level1_1 | Completed VC allocation for VC 1 at input 0 (front: 10).
11 | network_0/router_level1_1 |   Acquiring assigned VC 1 at output 9.
11 | network_0/router_level1_1/buf_0/vc_1 | Changing state from vc_alloc to active.
11 | network_0/router_level1_2 | Adding flit 9 to VC 1 at input 0 (state: idle, empty).
11 | network_0/router_level1_2 | Using precomputed lookahead routing information for VC 1 at input 0 (front: 9).
11 | network_0/router_level1_2/buf_0/vc_1 | Changing state from idle to vc_alloc.
11 | network_0/router_level1_2 | Beginning VC allocation for VC 1 at input 0 (front: 9).
11 | network_0/router_level1_2 |   VC 0 at output 9 is in use by VC 0 at input 0 (front flit: 3).
11 | network_0/router_level1_2 |   Requesting VC 1 at output 9 (in_pri: 0, out_pri: 0).
11 | network_0/router_level1_2 |   Requesting VC 2 at output 9 (in_pri: 0, out_pri: 0).
11 | network_0/router_level1_2 |   Requesting VC 3 at output 9 (in_pri: 0, out_pri: 0).
11 | network_0/router_level1_2/vc_allocator | Input requests = [ 1 -> [ 37@0 38@0 39@0 ]  4 -> [ 37@0 38@0 39@0 ]  8 -> [ 33@0 34@0 35@0 ]  16 -> [ 33@0 34@0 35@0 ]  17 -> [ 37@0 38@0 39@0 ]  24 -> [ 37@0 38@0 39@0 ]  ], output requests = [ 33 -> [ 8@0 16@0 ]  34 -> [ 8@0 16@0 ]  35 -> [ 8@0 16@0 ]  37 -> [ 1@0 4@0 17@0 24@0 ]  38 -> [ 1@0 4@0 17@0 24@0 ]  39 -> [ 1@0 4@0 17@0 24@0 ]  ].
11 | network_0/router_level1_2/vc_allocator | Input grants = [ 1 -> 37  8 -> 33  ], output grants = [ 33 -> 8  37 -> 1  ].
11 | network_0/router_level1_2 | Assigning VC 1 at output 9 to VC 1 at input 0.
11 | network_0/router_level1_2 | Beginning switch allocation for VC 0 at input 0 (front: 3).
11 | network_0/router_level1_2 |   Requesting output 9.0 (non-spec, pri: 0).
11 | network_0/router_level1_2/sw_allocator | Input requests = [ 0 -> [ 9@0 ]  3 -> [ 8@0 ]  ], output requests = [ 8 -> [ 3@0 ]  9 -> [ 0@0 ]  ].
11 | network_0/router_level1_2/sw_allocator | Input grants = [ 0 -> 9  3 -> 8  ], output grants = [ 8 -> 3  9 -> 0  ].
11 | network_0/router_level1_2 | Assigning output 9.0 to VC 0 at input 0.0.
11 | network_0/router_level1_2 | Completed VC allocation for VC 1 at input 0 (front: 9).
11 | network_0/router_level1_2 |   Acquiring assigned VC 1 at output 9.
11 | network_0/router_level1_2/buf_0/vc_1 | Changing state from vc_alloc to active.
11 | network_0/router_level1_2 | Completed switch allocation for VC 0 at input 0 (front: 3).
11 | network_0/router_level1_2 |   Scheduling switch connection from input 0.0 to output 9.0.
11 | network_0/router_level1_2 | Updating lookahead routing information for flit 3.
[...]
27 | network_0/router_level3_510/sw_allocator | Input requests = [ 0 -> [ 8@0 9@0 15@0 ]  1 -> [ 11@0 14@0 ]  2 -> [ 9@0 ]  3 -> [ 12@0 13@0 ]  4 -> [ 8@0 11@0 13@0 ]  5 -> [ 10@0 14@0 ]  6 -> [ 14@0 15@0 ]  7 -> [ 8@0 12@0 ]  8 -> [ 1@0 ]  12 -> [ 6@0 ]  14 -> [ 7@0 ]  15 -> [ 0@0 ]  ], output requests = [ 0 -> [ 15@0 ]  1 -> [ 8@0 ]  6 -> [ 12@0 ]  7 -> [ 14@0 ]  8 -> [ 0@0 4@0 7@0 ]  9 -> [ 0@0 2@0 ]  10 -> [ 5@0 ]  11 -> [ 1@0 4@0 ]  12 -> [ 3@0 7@0 ]  13 -> [ 3@0 4@0 ]  14 -> [ 1@0 5@0 6@0 ]  15 -> [ 0@0 6@0 ]  ].
27 | network_0/router_level3_510/sw_allocator | Input grants = [ 0 -> 15  2 -> 9  3 -> 12  4 -> 11  5 -> 10  6 -> 14  8 -> 1  12 -> 6  14 -> 7  15 -> 0  ], output grants = [ 0 -> 15  1 -> 8  6 -> 12  7 -> 14  9 -> 2  10 -> 5  11 -> 4  12 -> 3  14 -> 6  15 -> 0  ].
27 | network_0/router_level3_510 | Assigning output 6.0 to VC 0 at input 12.0.
27 | network_0/router_level3_510 | Assigning output 7.0 to VC 0 at input 14.0.
27 | network_0/router_level3_510 | Completed VC allocation for VC 0 at input 9 (front: 10).
27 | network_0/router_level3_510 |   No output VC allocated.
27 | network_0/router_level3_510 | Completed VC allocation for VC 0 at input 10 (front: 9).
27 | network_0/router_level3_510 |   Acquiring assigned VC 0 at output 4.
27 | network_0/router_level3_510/buf_10/vc_0 | Changing state from vc_alloc to active.
27 | network_0/router_level3_510 | Completed VC allocation for VC 1 at input 14 (front: 8).
27 | network_0/router_level3_510 |   Acquiring assigned VC 0 at output 5.
27 | network_0/router_level3_510/buf_14/vc_1 | Changing state from vc_alloc to active.
27 | network_0/router_level3_510 | Completed switch allocation for VC 0 at input 12 (front: 7).
27 | network_0/router_level3_510 |   Scheduling switch connection from input 12.0 to output 6.0.
27 | network_0/router_level3_510 | Completed switch allocation for VC 0 at input 14 (front: 6).
27 | network_0/router_level3_510 |   Scheduling switch connection from input 14.0 to output 7.0.
27 | network_0/router_level3_511 | Beginning switch allocation for VC 0 at input 8 (front: 1).
27 | network_0/router_level3_511 |   Requesting output 6.0 (non-spec, pri: 0).
27 | network_0/router_level3_511 | Beginning switch allocation for VC 0 at input 10 (front: 3).
27 | network_0/router_level3_511 |   Requesting output 4.0 (non-spec, pri: 0).
27 | network_0/router_level3_511 | Beginning switch allocation for VC 0 at input 12 (front: 2).
27 | network_0/router_level3_511 |   Requesting output 5.0 (non-spec, pri: 0).
27 | network_0/router_level3_511 | Beginning switch allocation for VC 0 at input 14 (front: 4).
27 | network_0/router_level3_511 |   Requesting output 3.0 (non-spec, pri: 0).
27 | network_0/router_level3_511 | Beginning switch allocation for VC 0 at input 15 (front: 5).
27 | network_0/router_level3_511 |   Requesting output 2.0 (non-spec, pri: 0).
27 | network_0/router_level3_511/sw_allocator | Input requests = [ 0 -> [ 13@0 14@0 ]  1 -> [ 12@0 15@0 ]  2 -> [ 9@0 10@0 ]  3 -> [ 12@0 15@0 ]  4 -> [ 10@0 11@0 ]  5 -> [ 9@0 10@0 15@0 ]  6 -> [ 13@0 ]  7 -> [ 13@0 14@0 ]  8 -> [ 6@0 ]  9 -> [ 7@0 ]  10 -> [ 4@0 ]  12 -> [ 5@0 ]  14 -> [ 3@0 ]  15 -> [ 2@0 ]  ], output requests = [ 2 -> [ 15@0 ]  3 -> [ 14@0 ]  4 -> [ 10@0 ]  5 -> [ 12@0 ]  6 -> [ 8@0 ]  7 -> [ 9@0 ]  9 -> [ 2@0 5@0 ]  10 -> [ 2@0 4@0 5@0 ]  11 -> [ 4@0 ]  12 -> [ 1@0 3@0 ]  13 -> [ 0@0 6@0 7@0 ]  14 -> [ 0@0 7@0 ]  15 -> [ 1@0 3@0 5@0 ]  ].
27 | network_0/router_level3_511/sw_allocator | Input grants = [ 0 -> 14  1 -> 12  4 -> 10  5 -> 9  6 -> 13  8 -> 6  9 -> 7  10 -> 4  12 -> 5  14 -> 3  15 -> 2  ], output grants = [ 2 -> 15  3 -> 14  4 -> 10  5 -> 12  6 -> 8  7 -> 9  9 -> 5  10 -> 4  12 -> 1  13 -> 6  14 -> 0  ].
27 | network_0/router_level3_511 | Assigning output 6.0 to VC 0 at input 8.0.
27 | network_0/router_level3_511 | Assigning output 4.0 to VC 0 at input 10.0.
27 | network_0/router_level3_511 | Assigning output 5.0 to VC 0 at input 12.0.
27 | network_0/router_level3_511 | Assigning output 3.0 to VC 0 at input 14.0.
27 | network_0/router_level3_511 | Assigning output 2.0 to VC 0 at input 15.0.
27 | network_0/router_level3_511 | Completed switch allocation for VC 0 at input 8 (front: 1).
27 | network_0/router_level3_511 |   Scheduling switch connection from input 8.0 to output 6.0.
27 | network_0/router_level3_511 | Completed switch allocation for VC 0 at input 10 (front: 3).
27 | network_0/router_level3_511 |   Scheduling switch connection from input 10.0 to output 4.0.
27 | network_0/router_level3_511 | Completed switch allocation for VC 0 at input 12 (front: 2).
27 | network_0/router_level3_511 |   Scheduling switch connection from input 12.0 to output 5.0.
27 | network_0/router_level3_511 | Completed switch allocation for VC 0 at input 14 (front: 4).
27 | network_0/router_level3_511 |   Scheduling switch connection from input 14.0 to output 3.0.
27 | network_0/router_level3_511 | Completed switch allocation for VC 0 at input 15 (front: 5).
27 | network_0/router_level3_511 |   Scheduling switch connection from input 15.0 to output 2.0.
28 | network_0/router_level3_510 | Beginning VC allocation for VC 0 at input 9 (front: 10).
28 | network_0/router_level3_510 |   VC 0 at output 3 is in use by VC 1 at input 8 (front flit: 3287).
28 | network_0/router_level3_510 |   Requesting VC 1 at output 3 (in_pri: 0, out_pri: 0).
28 | network_0/router_level3_510 |   Requesting VC 2 at output 3 (in_pri: 0, out_pri: 0).
28 | network_0/router_level3_510 |   Requesting VC 3 at output 3 (in_pri: 0, out_pri: 0).
28 | network_0/router_level3_510/vc_allocator | Input requests = [ 0 -> [ 36@0 39@0 ]  6 -> [ 60@0 63@0 ]  8 -> [ 58@0 ]  11 -> [ 58@0 ]  14 -> [ 58@0 ]  15 -> [ 58@0 ]  16 -> [ 53@0 55@0 ]  19 -> [ 40@0 41@0 42@0 43@0 ]  21 -> [ 58@0 ]  22 -> [ 53@0 55@0 ]  23 -> [ 60@0 63@0 ]  24 -> [ 53@0 55@0 ]  36 -> [ 13@0 14@0 15@0 ]  52 -> [ 28@0 30@0 31@0 ]  56 -> [ 17@0 18@0 19@0 ]  60 -> [ 4@0 5@0 6@0 7@0 ]  ], output requests = [ 4 -> [ 60@0 ]  5 -> [ 60@0 ]  6 -> [ 60@0 ]  7 -> [ 60@0 ]  13 -> [ 36@0 ]  14 -> [ 36@0 ]  15 -> [ 36@0 ]  17 -> [ 56@0 ]  18 -> [ 56@0 ]  19 -> [ 56@0 ]  28 -> [ 52@0 ]  30 -> [ 52@0 ]  31 -> [ 52@0 ]  36 -> [ 0@0 ]  39 -> [ 0@0 ]  40 -> [ 19@0 ]  41 -> [ 19@0 ]  42 -> [ 19@0 ]  43 -> [ 19@0 ]  53 -> [ 16@0 22@0 24@0 ]  55 -> [ 16@0 22@0 24@0 ]  58 -> [ 8@0 11@0 14@0 15@0 21@0 ]  60 -> [ 6@0 23@0 ]  63 -> [ 6@0 23@0 ]  ].
28 | network_0/router_level3_510/vc_allocator | Input grants = [ 0 -> 36  6 -> 60  8 -> 58  16 -> 53  19 -> 40  36 -> 13  52 -> 28  56 -> 17  60 -> 4  ], output grants = [ 4 -> 60  13 -> 36  17 -> 56  28 -> 52  36 -> 0  40 -> 19  53 -> 16  58 -> 8  60 -> 6  ].
28 | network_0/router_level3_510 | Assigning VC 1 at output 3 to VC 0 at input 9.
28 | network_0/router_level3_510 | Beginning switch allocation for VC 0 at input 10 (front: 9).
28 | network_0/router_level3_510 |   Requesting output 4.0 (non-spec, pri: 0).
28 | network_0/router_level3_510 | Beginning switch allocation for VC 1 at input 14 (front: 8).
28 | network_0/router_level3_510 |   Requesting output 5.0 (non-spec, pri: 0).
28 | network_0/router_level3_510/sw_allocator | Input requests = [ 0 -> [ 8@0 9@0 15@0 ]  1 -> [ 11@0 14@0 ]  3 -> [ 12@0 13@0 ]  4 -> [ 8@0 13@0 ]  5 -> [ 14@0 ]  6 -> [ 9@0 15@0 ]  7 -> [ 8@0 12@0 ]  8 -> [ 3@0 ]  10 -> [ 4@0 ]  12 -> [ 6@0 ]  14 -> [ 5@0 ]  15 -> [ 7@0 ]  ], output requests = [ 3 -> [ 8@0 ]  4 -> [ 10@0 ]  5 -> [ 14@0 ]  6 -> [ 12@0 ]  7 -> [ 15@0 ]  8 -> [ 0@0 4@0 7@0 ]  9 -> [ 0@0 6@0 ]  11 -> [ 1@0 ]  12 -> [ 3@0 7@0 ]  13 -> [ 3@0 4@0 ]  14 -> [ 1@0 5@0 ]  15 -> [ 0@0 6@0 ]  ].
28 | network_0/router_level3_510/sw_allocator | Input grants = [ 0 -> 8  1 -> 14  3 -> 13  6 -> 15  7 -> 12  8 -> 3  10 -> 4  12 -> 6  14 -> 5  15 -> 7  ], output grants = [ 3 -> 8  4 -> 10  5 -> 14  6 -> 12  7 -> 15  8 -> 0  12 -> 7  13 -> 3  14 -> 1  15 -> 6  ].
28 | network_0/router_level3_510 | Assigning output 4.0 to VC 0 at input 10.0.
28 | network_0/router_level3_510 | Assigning output 5.0 to VC 1 at input 14.0.
28 | network_0/router_level3_510 | Beginning crossbar traversal for flit 7 from input 12.0 to output 6.0.
28 | network_0/router_level3_510 | Beginning crossbar traversal for flit 6 from input 14.0 to output 7.0.
28 | network_0/router_level3_510 | Completed VC allocation for VC 0 at input 9 (front: 10).
28 | network_0/router_level3_510 |   Acquiring assigned VC 1 at output 3.
28 | network_0/router_level3_510/buf_9/vc_0 | Changing state from vc_alloc to active.
28 | network_0/router_level3_510 | Completed switch allocation for VC 0 at input 10 (front: 9).
28 | network_0/router_level3_510 |   Scheduling switch connection from input 10.0 to output 4.0.
28 | network_0/router_level3_510 | Completed switch allocation for VC 1 at input 14 (front: 8).
28 | network_0/router_level3_510 |   Scheduling switch connection from input 14.0 to output 5.0.
28 | network_0/router_level3_510 | Completed crossbar traversal for flit 7 from input 12.0 to output 6.0.
28 | network_0/router_level3_510 | Buffering flit 7 at output 6.
28 | network_0/router_level3_510 | Completed crossbar traversal for flit 6 from input 14.0 to output 7.0.
28 | network_0/router_level3_510 | Buffering flit 6 at output 7.
28 | network_0/router_level3_511 | Beginning crossbar traversal for flit 1 from input 8.0 to output 6.0.
28 | network_0/router_level3_511 | Beginning crossbar traversal for flit 3 from input 10.0 to output 4.0.
28 | network_0/router_level3_511 | Beginning crossbar traversal for flit 2 from input 12.0 to output 5.0.
28 | network_0/router_level3_511 | Beginning crossbar traversal for flit 4 from input 14.0 to output 3.0.
28 | network_0/router_level3_511 | Beginning crossbar traversal for flit 5 from input 15.0 to output 2.0.
28 | network_0/router_level3_511 | Completed crossbar traversal for flit 1 from input 8.0 to output 6.0.
28 | network_0/router_level3_511 | Buffering flit 1 at output 6.
28 | network_0/router_level3_511 | Completed crossbar traversal for flit 3 from input 10.0 to output 4.0.
28 | network_0/router_level3_511 | Buffering flit 3 at output 4.
28 | network_0/router_level3_511 | Completed crossbar traversal for flit 2 from input 12.0 to output 5.0.
28 | network_0/router_level3_511 | Buffering flit 2 at output 5.
28 | network_0/router_level3_511 | Completed crossbar traversal for flit 4 from input 14.0 to output 3.0.
28 | network_0/router_level3_511 | Buffering flit 4 at output 3.
28 | network_0/router_level3_511 | Completed crossbar traversal for flit 5 from input 15.0 to output 2.0.
28 | network_0/router_level3_511 | Buffering flit 5 at output 2.
28 | network_0/router_level3_510 | Sending flit 7 to channel at output 6.
28 | network_0/router_level3_510 | Sending flit 6 to channel at output 7.
28 | network_0/router_level3_511 | Sending flit 5 to channel at output 2.
28 | network_0/router_level3_511 | Sending flit 4 to channel at output 3.
28 | network_0/router_level3_511 | Sending flit 3 to channel at output 4.
28 | network_0/router_level3_511 | Sending flit 2 to channel at output 5.
28 | network_0/router_level3_511 | Sending flit 1 to channel at output 6.
29 | network_0/network_0_fchan_egress4086 | Beginning channel traversal for flit 7 with delay 1.
29 | network_0/network_0_fchan_egress4087 | Beginning channel traversal for flit 6 with delay 1.
29 | network_0/network_0_fchan_egress4090 | Beginning channel traversal for flit 5 with delay 1.
29 | network_0/network_0_fchan_egress4091 | Beginning channel traversal for flit 4 with delay 1.
29 | network_0/network_0_fchan_egress4092 | Beginning channel traversal for flit 3 with delay 1.
29 | network_0/network_0_fchan_egress4093 | Beginning channel traversal for flit 2 with delay 1.
29 | network_0/network_0_fchan_egress4094 | Beginning channel traversal for flit 1 with delay 1.
29 | network_0/router_level3_510 | Beginning switch allocation for VC 0 at input 9 (front: 10).
29 | network_0/router_level3_510 |   Requesting output 3.0 (non-spec, pri: 0).
29 | network_0/router_level3_510/sw_allocator | Input requests = [ 0 -> [ 9@0 15@0 ]  1 -> [ 11@0 14@0 15@0 ]  2 -> [ 14@0 ]  3 -> [ 12@0 ]  4 -> [ 8@0 10@0 13@0 ]  5 -> [ 14@0 ]  6 -> [ 9@0 ]  7 -> [ 8@0 12@0 ]  9 -> [ 3@0 ]  13 -> [ 7@0 ]  14 -> [ 4@0 ]  15 -> [ 1@0 ]  ], output requests = [ 1 -> [ 15@0 ]  3 -> [ 9@0 ]  4 -> [ 14@0 ]  7 -> [ 13@0 ]  8 -> [ 4@0 7@0 ]  9 -> [ 0@0 6@0 ]  10 -> [ 4@0 ]  11 -> [ 1@0 ]  12 -> [ 3@0 7@0 ]  13 -> [ 4@0 ]  14 -> [ 1@0 2@0 5@0 ]  15 -> [ 0@0 1@0 ]  ].
29 | network_0/router_level3_510/sw_allocator | Input grants = [ 1 -> 15  2 -> 14  3 -> 12  4 -> 13  6 -> 9  7 -> 8  9 -> 3  13 -> 7  14 -> 4  15 -> 1  ], output grants = [ 1 -> 15  3 -> 9  4 -> 14  7 -> 13  8 -> 7  9 -> 6  12 -> 3  13 -> 4  14 -> 2  15 -> 1  ].
29 | network_0/router_level3_510 | Assigning output 3.0 to VC 0 at input 9.0.
29 | network_0/router_level3_510 | Beginning crossbar traversal for flit 9 from input 10.0 to output 4.0.
29 | network_0/router_level3_510 | Beginning crossbar traversal for flit 8 from input 14.0 to output 5.0.
29 | network_0/router_level3_510 | Completed switch allocation for VC 0 at input 9 (front: 10).
29 | network_0/router_level3_510 |   Scheduling switch connection from input 9.0 to output 3.0.
29 | network_0/router_level3_510 | Completed crossbar traversal for flit 9 from input 10.0 to output 4.0.
29 | network_0/router_level3_510 | Buffering flit 9 at output 4.
29 | network_0/router_level3_510 | Completed crossbar traversal for flit 8 from input 14.0 to output 5.0.
29 | network_0/router_level3_510 | Buffering flit 8 at output 5.
29 | network_0/network_0_fchan_egress4086 | Completed channel traversal for flit 7.
29 | network_0/network_0_fchan_egress4087 | Completed channel traversal for flit 6.
29 | network_0/network_0_fchan_egress4090 | Completed channel traversal for flit 5.
29 | network_0/network_0_fchan_egress4091 | Completed channel traversal for flit 4.
29 | network_0/network_0_fchan_egress4092 | Completed channel traversal for flit 3.
29 | network_0/network_0_fchan_egress4093 | Completed channel traversal for flit 2.
29 | network_0/network_0_fchan_egress4094 | Completed channel traversal for flit 1.
29 | network_0/router_level3_510 | Sending flit 9 to channel at output 4.
29 | network_0/router_level3_510 | Sending flit 8 to channel at output 5.
30 | node4086 | Ejecting flit 7 (packet 7) from VC 0.
30 | node4087 | Ejecting flit 6 (packet 6) from VC 0.
30 | node4090 | Ejecting flit 5 (packet 5) from VC 0.
30 | node4091 | Ejecting flit 4 (packet 4) from VC 0.
30 | node4092 | Ejecting flit 3 (packet 3) from VC 0.
30 | node4093 | Ejecting flit 2 (packet 2) from VC 0.
30 | node4094 | Ejecting flit 1 (packet 1) from VC 0.
30 | network_0/network_0_fchan_egress4084 | Beginning channel traversal for flit 9 with delay 1.
30 | network_0/network_0_fchan_egress4085 | Beginning channel traversal for flit 8 with delay 1.
30 | node4086 | Injecting credit for VC 0 into subnet 0.
30 | node4086 | Retiring flit 7 (packet 7, src = 9, dest = 4086, hops = 7, flat = 30).
30 | node4086 | Retiring packet 7 (plat = 30, nlat = 30, frag = 0, src = 9, dest = 4086).
30 | node4087 | Injecting credit for VC 0 into subnet 0.
30 | node4087 | Retiring flit 6 (packet 6, src = 8, dest = 4087, hops = 7, flat = 30).
30 | node4087 | Retiring packet 6 (plat = 30, nlat = 30, frag = 0, src = 8, dest = 4087).
30 | node4090 | Injecting credit for VC 0 into subnet 0.
30 | node4090 | Retiring flit 5 (packet 5, src = 5, dest = 4090, hops = 7, flat = 30).
30 | node4090 | Retiring packet 5 (plat = 30, nlat = 30, frag = 0, src = 5, dest = 4090).
30 | node4091 | Injecting credit for VC 0 into subnet 0.
30 | node4091 | Retiring flit 4 (packet 4, src = 4, dest = 4091, hops = 7, flat = 30).
30 | node4091 | Retiring packet 4 (plat = 30, nlat = 30, frag = 0, src = 4, dest = 4091).
30 | node4092 | Injecting credit for VC 0 into subnet 0.
30 | node4092 | Retiring flit 3 (packet 3, src = 3, dest = 4092, hops = 7, flat = 30).
30 | node4092 | Retiring packet 3 (plat = 30, nlat = 30, frag = 0, src = 3, dest = 4092).
30 | node4093 | Injecting credit for VC 0 into subnet 0.
30 | node4093 | Retiring flit 2 (packet 2, src = 2, dest = 4093, hops = 7, flat = 30).
30 | node4093 | Retiring packet 2 (plat = 30, nlat = 30, frag = 0, src = 2, dest = 4093).
30 | node4094 | Injecting credit for VC 0 into subnet 0.
30 | node4094 | Retiring flit 1 (packet 1, src = 1, dest = 4094, hops = 7, flat = 30).
30 | node4094 | Retiring packet 1 (plat = 30, nlat = 30, frag = 0, src = 1, dest = 4094).
30 | network_0/router_level3_510 | Beginning crossbar traversal for flit 10 from input 9.0 to output 3.0.
30 | network_0/router_level3_510 | Completed crossbar traversal for flit 10 from input 9.0 to output 3.0.
30 | network_0/router_level3_510 | Buffering flit 10 at output 3.
30 | network_0/network_0_fchan_egress4084 | Completed channel traversal for flit 9.
30 | network_0/network_0_fchan_egress4085 | Completed channel traversal for flit 8.
30 | network_0/router_level3_510 | Sending flit 10 to channel at output 3.
31 | node4084 | Ejecting flit 9 (packet 9) from VC 0.
31 | node4085 | Ejecting flit 8 (packet 8) from VC 0.
31 | network_0/network_0_fchan_egress4083 | Beginning channel traversal for flit 10 with delay 1.
31 | node4084 | Injecting credit for VC 0 into subnet 0.
31 | node4084 | Retiring flit 9 (packet 9, src = 11, dest = 4084, hops = 7, flat = 31).
31 | node4084 | Retiring packet 9 (plat = 31, nlat = 31, frag = 0, src = 11, dest = 4084).
31 | node4085 | Injecting credit for VC 0 into subnet 0.
31 | node4085 | Retiring flit 8 (packet 8, src = 10, dest = 4085, hops = 7, flat = 31).
31 | node4085 | Retiring packet 8 (plat = 31, nlat = 31, frag = 0, src = 10, dest = 4085).
31 | network_0/network_0_fchan_egress4083 | Completed channel traversal for flit 10.
32 | node4083 | Ejecting flit 10 (packet 10) from VC 1.
32 | node4083 | Injecting credit for VC 1 into subnet 0.
32 | node4083 | Retiring flit 10 (packet 10, src = 12, dest = 4083, hops = 7, flat = 32).
32 | node4083 | Retiring packet 10 (plat = 32, nlat = 32, frag = 0, src = 12, dest = 4083).
Class 0:
Packet latency average = 361.904
	minimum = 30
	maximum = 865
Network latency average = 357.485
	minimum = 30
	maximum = 865
Slowest packet = 416811
Flit latency average = 357.485
	minimum = 30
	maximum = 865
Slowest flit = 416811
Fragmentation average = 0
	minimum = 0
	maximum = 0
Injected packet rate average = 0.399894
	minimum = 0.291 (at node 3554)
	maximum = 0.5 (at node 1486)
Accepted packet rate average = 0.235439
	minimum = 0.178 (at node 3972)
	maximum = 0.302 (at node 3399)
Injected flit rate average = 0.399894
	minimum = 0.291 (at node 3554)
	maximum = 0.5 (at node 1486)
Accepted flit rate average= 0.235439
	minimum = 0.178 (at node 3972)
	maximum = 0.302 (at node 3399)
Injected packet length average = 1
Accepted packet length average = 1
Total in-flight flits = 676774 (0 measured)
latency change    = 1
throughput change = 1
Class 0:
Packet latency average = 710.994
	minimum = 30
	maximum = 1687
Network latency average = 521.651
	minimum = 30
	maximum = 1681
Slowest packet = 820227
Flit latency average = 521.651
	minimum = 30
	maximum = 1681
Slowest flit = 820227
Fragmentation average = 0
	minimum = 0
	maximum = 0
Injected packet rate average = 0.317572
	minimum = 0.2315 (at node 3554)
	maximum = 0.397 (at node 1781)
Accepted packet rate average = 0.238516
	minimum = 0.1675 (at node 3641)
	maximum = 0.3 (at node 1019)
Injected flit rate average = 0.317572
	minimum = 0.2315 (at node 3554)
	maximum = 0.397 (at node 1781)
Accepted flit rate average= 0.238516
	minimum = 0.1675 (at node 3641)
	maximum = 0.3 (at node 1019)
Injected packet length average = 1
Accepted packet length average = 1
Total in-flight flits = 650775 (0 measured)
latency change    = 0.490988
throughput change = 0.0129007
Average latency for class 0 exceeded 500 cycles. Aborting simulation.
Too many sample periods needed to converge
Simulation unstable, ending ...
Total run time 294.157
