BEGIN Configuration File: examples/fattree_config_0.35_2_bitcomp
// $Id: dragonflyconfig 3555 2011-05-16 23:37:55Z dub $

// Copyright (c) 2007-2015, Trustees of The Leland Stanford Junior University
// All rights reserved.
//
// Redistribution and use in source and binary forms, with or without
// modification, are permitted provided that the following conditions are met:
//
// Redistributions of source code must retain the above copyright notice, this
// list of conditions and the following disclaimer.
// Redistributions in binary form must reproduce the above copyright notice,
// this list of conditions and the following disclaimer in the documentation
// and/or other materials provided with the distribution.
//
// THIS SOFTWARE IS PROVIDED BY THE COPYRIGHT HOLDERS AND CONTRIBUTORS "AS IS"
// AND ANY EXPRESS OR IMPLIED WARRANTIES, INCLUDING, BUT NOT LIMITED TO, THE
// IMPLIED WARRANTIES OF MERCHANTABILITY AND FITNESS FOR A PARTICULAR PURPOSE
// ARE DISCLAIMED. IN NO EVENT SHALL THE COPYRIGHT OWNER OR CONTRIBUTORS BE
// LIABLE FOR ANY DIRECT, INDIRECT, INCIDENTAL, SPECIAL, EXEMPLARY, OR
// CONSEQUENTIAL DAMAGES (INCLUDING, BUT NOT LIMITED TO, PROCUREMENT OF
// SUBSTITUTE GOODS OR SERVICES; LOSS OF USE, DATA, OR PROFITS; OR BUSINESS
// INTERRUPTION) HOWEVER CAUSED AND ON ANY THEORY OF LIABILITY, WHETHER IN
// CONTRACT, STRICT LIABILITY, OR TORT (INCLUDING NEGLIGENCE OR OTHERWISE)
// ARISING IN ANY WAY OUT OF THE USE OF THIS SOFTWARE, EVEN IF ADVISED OF THE
// POSSIBILITY OF SUCH DAMAGE.


hold_switch_for_packet=1;

vc_buf_size = 16;


wait_for_tail_credit = 0;

//
// Router architecture
//
vc_allocator = separable_input_first; 
sw_allocator = separable_input_first;
alloc_iters  = 1;

credit_delay   = 2;
routing_delay  = 0;
vc_alloc_delay = 1;
sw_alloc_delay = 1;
st_final_delay = 1;

input_speedup     = 1;
output_speedup    = 1;
internal_speedup  = 1.0;


warmup_periods = 3;
sim_count          = 1;

sample_period  = 1000;  

routing_function = nca;
num_vcs     = 4;

priority = none;
traffic = bitcomp;


injection_rate = 0.35;
packet_size = 1;
injection_rate_uses_flits=1;

topology = fattree;

k  = 8;
n  = 4;
t = 2;

watch_file = watchfile.txt;
watch_out=-;
stats_out = examples/fattree_config_0.35_2_bitcomp.m;

END Configuration File: examples/fattree_config_0.35_2_bitcomp
Fat Tree
 k = 8 levels = 4
 each switch - total radix =  16
 # of switches = 2048
 # of channels = 24576
 # of nodes ( size of network ) = 4096
 tapering factor = 2
0 | node11 | Enqueuing flit 1 (packet 1) at time 0.
0 | node12 | Enqueuing flit 2 (packet 2) at time 0.
0 | node13 | Enqueuing flit 3 (packet 3) at time 0.
0 | node14 | Enqueuing flit 4 (packet 4) at time 0.
0 | node15 | Enqueuing flit 5 (packet 5) at time 0.
0 | node18 | Enqueuing flit 6 (packet 6) at time 0.
0 | node19 | Enqueuing flit 7 (packet 7) at time 0.
0 | node20 | Enqueuing flit 8 (packet 8) at time 0.
0 | node30 | Enqueuing flit 9 (packet 9) at time 0.
0 | node31 | Enqueuing flit 10 (packet 10) at time 0.
0 | traffic_manager | Finding output VC for flit 1:
0 | traffic_manager |   Selected output VC 0.
0 | node11 | Generating lookahead routing info for flit 1.
0 | node11 | Injecting flit 1 into subnet 0 at time 0 with priority 0.
0 | traffic_manager | Finding output VC for flit 2:
0 | traffic_manager |   Selected output VC 0.
0 | node12 | Generating lookahead routing info for flit 2.
0 | node12 | Injecting flit 2 into subnet 0 at time 0 with priority 0.
0 | traffic_manager | Finding output VC for flit 3:
0 | traffic_manager |   Selected output VC 0.
0 | node13 | Generating lookahead routing info for flit 3.
0 | node13 | Injecting flit 3 into subnet 0 at time 0 with priority 0.
0 | traffic_manager | Finding output VC for flit 4:
0 | traffic_manager |   Selected output VC 0.
0 | node14 | Generating lookahead routing info for flit 4.
0 | node14 | Injecting flit 4 into subnet 0 at time 0 with priority 0.
0 | traffic_manager | Finding output VC for flit 5:
0 | traffic_manager |   Selected output VC 0.
0 | node15 | Generating lookahead routing info for flit 5.
0 | node15 | Injecting flit 5 into subnet 0 at time 0 with priority 0.
0 | traffic_manager | Finding output VC for flit 6:
0 | traffic_manager |   Selected output VC 0.
0 | node18 | Generating lookahead routing info for flit 6.
0 | node18 | Injecting flit 6 into subnet 0 at time 0 with priority 0.
0 | traffic_manager | Finding output VC for flit 7:
0 | traffic_manager |   Selected output VC 0.
0 | node19 | Generating lookahead routing info for flit 7.
0 | node19 | Injecting flit 7 into subnet 0 at time 0 with priority 0.
0 | traffic_manager | Finding output VC for flit 8:
0 | traffic_manager |   Selected output VC 0.
0 | node20 | Generating lookahead routing info for flit 8.
0 | node20 | Injecting flit 8 into subnet 0 at time 0 with priority 0.
0 | traffic_manager | Finding output VC for flit 9:
0 | traffic_manager |   Selected output VC 0.
0 | node30 | Generating lookahead routing info for flit 9.
0 | node30 | Injecting flit 9 into subnet 0 at time 0 with priority 0.
0 | traffic_manager | Finding output VC for flit 10:
0 | traffic_manager |   Selected output VC 0.
0 | node31 | Generating lookahead routing info for flit 10.
0 | node31 | Injecting flit 10 into subnet 0 at time 0 with priority 0.
1 | network_0/network_0_fchan_ingress11 | Beginning channel traversal for flit 1 with delay 1.
1 | network_0/network_0_fchan_ingress12 | Beginning channel traversal for flit 2 with delay 1.
1 | network_0/network_0_fchan_ingress13 | Beginning channel traversal for flit 3 with delay 1.
1 | network_0/network_0_fchan_ingress14 | Beginning channel traversal for flit 4 with delay 1.
1 | network_0/network_0_fchan_ingress15 | Beginning channel traversal for flit 5 with delay 1.
1 | network_0/network_0_fchan_ingress18 | Beginning channel traversal for flit 6 with delay 1.
1 | network_0/network_0_fchan_ingress19 | Beginning channel traversal for flit 7 with delay 1.
1 | network_0/network_0_fchan_ingress20 | Beginning channel traversal for flit 8 with delay 1.
1 | network_0/network_0_fchan_ingress30 | Beginning channel traversal for flit 9 with delay 1.
1 | network_0/network_0_fchan_ingress31 | Beginning channel traversal for flit 10 with delay 1.
1 | network_0/network_0_fchan_ingress11 | Completed channel traversal for flit 1.
1 | network_0/network_0_fchan_ingress12 | Completed channel traversal for flit 2.
1 | network_0/network_0_fchan_ingress13 | Completed channel traversal for flit 3.
1 | network_0/network_0_fchan_ingress14 | Completed channel traversal for flit 4.
1 | network_0/network_0_fchan_ingress15 | Completed channel traversal for flit 5.
1 | network_0/network_0_fchan_ingress18 | Completed channel traversal for flit 6.
1 | network_0/network_0_fchan_ingress19 | Completed channel traversal for flit 7.
1 | network_0/network_0_fchan_ingress20 | Completed channel traversal for flit 8.
1 | network_0/network_0_fchan_ingress30 | Completed channel traversal for flit 9.
1 | network_0/network_0_fchan_ingress31 | Completed channel traversal for flit 10.
2 | network_0/router_level3_1 | Received flit 1 from channel at input 3.
2 | network_0/router_level3_1 | Received flit 2 from channel at input 4.
2 | network_0/router_level3_1 | Received flit 3 from channel at input 5.
2 | network_0/router_level3_1 | Received flit 4 from channel at input 6.
2 | network_0/router_level3_1 | Received flit 5 from channel at input 7.
2 | network_0/router_level3_2 | Received flit 6 from channel at input 2.
2 | network_0/router_level3_2 | Received flit 7 from channel at input 3.
2 | network_0/router_level3_2 | Received flit 8 from channel at input 4.
2 | network_0/router_level3_3 | Received flit 9 from channel at input 6.
2 | network_0/router_level3_3 | Received flit 10 from channel at input 7.
2 | network_0/router_level3_1 | Adding flit 1 to VC 0 at input 3 (state: idle, empty).
2 | network_0/router_level3_1 | Using precomputed lookahead routing information for VC 0 at input 3 (front: 1).
2 | network_0/router_level3_1/buf_3/vc_0 | Changing state from idle to vc_alloc.
2 | network_0/router_level3_1 | Adding flit 2 to VC 0 at input 4 (state: idle, empty).
2 | network_0/router_level3_1 | Using precomputed lookahead routing information for VC 0 at input 4 (front: 2).
2 | network_0/router_level3_1/buf_4/vc_0 | Changing state from idle to vc_alloc.
2 | network_0/router_level3_1 | Adding flit 3 to VC 0 at input 5 (state: idle, empty).
2 | network_0/router_level3_1 | Using precomputed lookahead routing information for VC 0 at input 5 (front: 3).
2 | network_0/router_level3_1/buf_5/vc_0 | Changing state from idle to vc_alloc.
2 | network_0/router_level3_1 | Adding flit 4 to VC 0 at input 6 (state: idle, empty).
2 | network_0/router_level3_1 | Using precomputed lookahead routing information for VC 0 at input 6 (front: 4).
2 | network_0/router_level3_1/buf_6/vc_0 | Changing state from idle to vc_alloc.
2 | network_0/router_level3_1 | Adding flit 5 to VC 0 at input 7 (state: idle, empty).
2 | network_0/router_level3_1 | Using precomputed lookahead routing information for VC 0 at input 7 (front: 5).
2 | network_0/router_level3_1/buf_7/vc_0 | Changing state from idle to vc_alloc.
2 | network_0/router_level3_1 | Beginning VC allocation for VC 0 at input 3 (front: 1).
2 | network_0/router_level3_1 |   Requesting VC 0 at output 8 (in_pri: 0, out_pri: 0).
2 | network_0/router_level3_1 |   Requesting VC 1 at output 8 (in_pri: 0, out_pri: 0).
2 | network_0/router_level3_1 |   Requesting VC 2 at output 8 (in_pri: 0, out_pri: 0).
2 | network_0/router_level3_1 |   Requesting VC 3 at output 8 (in_pri: 0, out_pri: 0).
2 | network_0/router_level3_1 | Beginning VC allocation for VC 0 at input 4 (front: 2).
2 | network_0/router_level3_1 |   Requesting VC 0 at output 10 (in_pri: 0, out_pri: 0).
2 | network_0/router_level3_1 |   Requesting VC 1 at output 10 (in_pri: 0, out_pri: 0).
2 | network_0/router_level3_1 |   Requesting VC 2 at output 10 (in_pri: 0, out_pri: 0).
2 | network_0/router_level3_1 |   Requesting VC 3 at output 10 (in_pri: 0, out_pri: 0).
2 | network_0/router_level3_1 | Beginning VC allocation for VC 0 at input 5 (front: 3).
2 | network_0/router_level3_1 |   Requesting VC 0 at output 9 (in_pri: 0, out_pri: 0).
2 | network_0/router_level3_1 |   Requesting VC 1 at output 9 (in_pri: 0, out_pri: 0).
2 | network_0/router_level3_1 |   Requesting VC 2 at output 9 (in_pri: 0, out_pri: 0).
2 | network_0/router_level3_1 |   Requesting VC 3 at output 9 (in_pri: 0, out_pri: 0).
2 | network_0/router_level3_1 | Beginning VC allocation for VC 0 at input 6 (front: 4).
2 | network_0/router_level3_1 |   Requesting VC 0 at output 9 (in_pri: 0, out_pri: 0).
2 | network_0/router_level3_1 |   Requesting VC 1 at output 9 (in_pri: 0, out_pri: 0).
2 | network_0/router_level3_1 |   Requesting VC 2 at output 9 (in_pri: 0, out_pri: 0).
2 | network_0/router_level3_1 |   Requesting VC 3 at output 9 (in_pri: 0, out_pri: 0).
2 | network_0/router_level3_1 | Beginning VC allocation for VC 0 at input 7 (front: 5).
2 | network_0/router_level3_1 |   Requesting VC 0 at output 12 (in_pri: 0, out_pri: 0).
2 | network_0/router_level3_1 |   Requesting VC 1 at output 12 (in_pri: 0, out_pri: 0).
2 | network_0/router_level3_1 |   Requesting VC 2 at output 12 (in_pri: 0, out_pri: 0).
2 | network_0/router_level3_1 |   Requesting VC 3 at output 12 (in_pri: 0, out_pri: 0).
2 | network_0/router_level3_1/vc_allocator | Input requests = [ 4 -> [ 44@0 45@0 46@0 47@0 ]  12 -> [ 32@0 33@0 34@0 35@0 ]  16 -> [ 40@0 41@0 42@0 43@0 ]  20 -> [ 36@0 37@0 38@0 39@0 ]  24 -> [ 36@0 37@0 38@0 39@0 ]  28 -> [ 48@0 49@0 50@0 51@0 ]  ], output requests = [ 32 -> [ 12@0 ]  33 -> [ 12@0 ]  34 -> [ 12@0 ]  35 -> [ 12@0 ]  36 -> [ 20@0 24@0 ]  37 -> [ 20@0 24@0 ]  38 -> [ 20@0 24@0 ]  39 -> [ 20@0 24@0 ]  40 -> [ 16@0 ]  41 -> [ 16@0 ]  42 -> [ 16@0 ]  43 -> [ 16@0 ]  44 -> [ 4@0 ]  45 -> [ 4@0 ]  46 -> [ 4@0 ]  47 -> [ 4@0 ]  48 -> [ 28@0 ]  49 -> [ 28@0 ]  50 -> [ 28@0 ]  51 -> [ 28@0 ]  ].
2 | network_0/router_level3_1/vc_allocator | Input grants = [ 4 -> 44  12 -> 32  16 -> 40  20 -> 36  28 -> 48  ], output grants = [ 32 -> 12  36 -> 20  40 -> 16  44 -> 4  48 -> 28  ].
2 | network_0/router_level3_1 | Assigning VC 0 at output 8 to VC 0 at input 3.
2 | network_0/router_level3_1 | Assigning VC 0 at output 10 to VC 0 at input 4.
2 | network_0/router_level3_1 | Assigning VC 0 at output 9 to VC 0 at input 5.
2 | network_0/router_level3_1 | VC allocation failed for VC 0 at input 6.
2 | network_0/router_level3_1 | Assigning VC 0 at output 12 to VC 0 at input 7.
2 | network_0/router_level3_1 | Completed VC allocation for VC 0 at input 3 (front: 1).
2 | network_0/router_level3_1 |   Acquiring assigned VC 0 at output 8.
2 | network_0/router_level3_1/buf_3/vc_0 | Changing state from vc_alloc to active.
2 | network_0/router_level3_1 | Completed VC allocation for VC 0 at input 4 (front: 2).
2 | network_0/router_level3_1 |   Acquiring assigned VC 0 at output 10.
2 | network_0/router_level3_1/buf_4/vc_0 | Changing state from vc_alloc to active.
2 | network_0/router_level3_1 | Completed VC allocation for VC 0 at input 5 (front: 3).
2 | network_0/router_level3_1 |   Acquiring assigned VC 0 at output 9.
2 | network_0/router_level3_1/buf_5/vc_0 | Changing state from vc_alloc to active.
2 | network_0/router_level3_1 | Completed VC allocation for VC 0 at input 6 (front: 4).
2 | network_0/router_level3_1 |   No output VC allocated.
2 | network_0/router_level3_1 | Completed VC allocation for VC 0 at input 7 (front: 5).
2 | network_0/router_level3_1 |   Acquiring assigned VC 0 at output 12.
2 | network_0/router_level3_1/buf_7/vc_0 | Changing state from vc_alloc to active.
2 | network_0/router_level3_2 | Adding flit 6 to VC 0 at input 2 (state: idle, empty).
2 | network_0/router_level3_2 | Using precomputed lookahead routing information for VC 0 at input 2 (front: 6).
2 | network_0/router_level3_2/buf_2/vc_0 | Changing state from idle to vc_alloc.
2 | network_0/router_level3_2 | Adding flit 7 to VC 0 at input 3 (state: idle, empty).
2 | network_0/router_level3_2 | Using precomputed lookahead routing information for VC 0 at input 3 (front: 7).
2 | network_0/router_level3_2/buf_3/vc_0 | Changing state from idle to vc_alloc.
2 | network_0/router_level3_2 | Adding flit 8 to VC 0 at input 4 (state: idle, empty).
2 | network_0/router_level3_2 | Using precomputed lookahead routing information for VC 0 at input 4 (front: 8).
2 | network_0/router_level3_2/buf_4/vc_0 | Changing state from idle to vc_alloc.
2 | network_0/router_level3_2 | Beginning VC allocation for VC 0 at input 2 (front: 6).
2 | network_0/router_level3_2 |   Requesting VC 0 at output 12 (in_pri: 0, out_pri: 0).
2 | network_0/router_level3_2 |   Requesting VC 1 at output 12 (in_pri: 0, out_pri: 0).
2 | network_0/router_level3_2 |   Requesting VC 2 at output 12 (in_pri: 0, out_pri: 0).
2 | network_0/router_level3_2 |   Requesting VC 3 at output 12 (in_pri: 0, out_pri: 0).
2 | network_0/router_level3_2 | Beginning VC allocation for VC 0 at input 3 (front: 7).
2 | network_0/router_level3_2 |   Requesting VC 0 at output 11 (in_pri: 0, out_pri: 0).
2 | network_0/router_level3_2 |   Requesting VC 1 at output 11 (in_pri: 0, out_pri: 0).
2 | network_0/router_level3_2 |   Requesting VC 2 at output 11 (in_pri: 0, out_pri: 0).
2 | network_0/router_level3_2 |   Requesting VC 3 at output 11 (in_pri: 0, out_pri: 0).
2 | network_0/router_level3_2 | Beginning VC allocation for VC 0 at input 4 (front: 8).
2 | network_0/router_level3_2 |   Requesting VC 0 at output 14 (in_pri: 0, out_pri: 0).
2 | network_0/router_level3_2 |   Requesting VC 1 at output 14 (in_pri: 0, out_pri: 0).
2 | network_0/router_level3_2 |   Requesting VC 2 at output 14 (in_pri: 0, out_pri: 0).
2 | network_0/router_level3_2 |   Requesting VC 3 at output 14 (in_pri: 0, out_pri: 0).
2 | network_0/router_level3_2/vc_allocator | Input requests = [ 8 -> [ 48@0 49@0 50@0 51@0 ]  12 -> [ 44@0 45@0 46@0 47@0 ]  16 -> [ 56@0 57@0 58@0 59@0 ]  ], output requests = [ 44 -> [ 12@0 ]  45 -> [ 12@0 ]  46 -> [ 12@0 ]  47 -> [ 12@0 ]  48 -> [ 8@0 ]  49 -> [ 8@0 ]  50 -> [ 8@0 ]  51 -> [ 8@0 ]  56 -> [ 16@0 ]  57 -> [ 16@0 ]  58 -> [ 16@0 ]  59 -> [ 16@0 ]  ].
2 | network_0/router_level3_2/vc_allocator | Input grants = [ 8 -> 48  12 -> 44  16 -> 56  ], output grants = [ 44 -> 12  48 -> 8  56 -> 16  ].
2 | network_0/router_level3_2 | Assigning VC 0 at output 12 to VC 0 at input 2.
2 | network_0/router_level3_2 | Assigning VC 0 at output 11 to VC 0 at input 3.
2 | network_0/router_level3_2 | Assigning VC 0 at output 14 to VC 0 at input 4.
2 | network_0/router_level3_2 | Completed VC allocation for VC 0 at input 2 (front: 6).
2 | network_0/router_level3_2 |   Acquiring assigned VC 0 at output 12.
2 | network_0/router_level3_2/buf_2/vc_0 | Changing state from vc_alloc to active.
2 | network_0/router_level3_2 | Completed VC allocation for VC 0 at input 3 (front: 7).
2 | network_0/router_level3_2 |   Acquiring assigned VC 0 at output 11.
2 | network_0/router_level3_2/buf_3/vc_0 | Changing state from vc_alloc to active.
2 | network_0/router_level3_2 | Completed VC allocation for VC 0 at input 4 (front: 8).
2 | network_0/router_level3_2 |   Acquiring assigned VC 0 at output 14.
2 | network_0/router_level3_2/buf_4/vc_0 | Changing state from vc_alloc to active.
2 | network_0/router_level3_3 | Adding flit 9 to VC 0 at input 6 (state: idle, empty).
2 | network_0/router_level3_3 | Using precomputed lookahead routing information for VC 0 at input 6 (front: 9).
2 | network_0/router_level3_3/buf_6/vc_0 | Changing state from idle to vc_alloc.
2 | network_0/router_level3_3 | Adding flit 10 to VC 0 at input 7 (state: idle, empty).
2 | network_0/router_level3_3 | Using precomputed lookahead routing information for VC 0 at input 7 (front: 10).
2 | network_0/router_level3_3/buf_7/vc_0 | Changing state from idle to vc_alloc.
2 | network_0/router_level3_3 | Beginning VC allocation for VC 0 at input 6 (front: 9).
2 | network_0/router_level3_3 |   Requesting VC 0 at output 14 (in_pri: 0, out_pri: 0).
2 | network_0/router_level3_3 |   Requesting VC 1 at output 14 (in_pri: 0, out_pri: 0).
2 | network_0/router_level3_3 |   Requesting VC 2 at output 14 (in_pri: 0, out_pri: 0).
2 | network_0/router_level3_3 |   Requesting VC 3 at output 14 (in_pri: 0, out_pri: 0).
2 | network_0/router_level3_3 | Beginning VC allocation for VC 0 at input 7 (front: 10).
2 | network_0/router_level3_3 |   Requesting VC 0 at output 15 (in_pri: 0, out_pri: 0).
2 | network_0/router_level3_3 |   Requesting VC 1 at output 15 (in_pri: 0, out_pri: 0).
2 | network_0/router_level3_3 |   Requesting VC 2 at output 15 (in_pri: 0, out_pri: 0).
2 | network_0/router_level3_3 |   Requesting VC 3 at output 15 (in_pri: 0, out_pri: 0).
2 | network_0/router_level3_3/vc_allocator | Input requests = [ 24 -> [ 56@0 57@0 58@0 59@0 ]  28 -> [ 60@0 61@0 62@0 63@0 ]  ], output requests = [ 56 -> [ 24@0 ]  57 -> [ 24@0 ]  58 -> [ 24@0 ]  59 -> [ 24@0 ]  60 -> [ 28@0 ]  61 -> [ 28@0 ]  62 -> [ 28@0 ]  63 -> [ 28@0 ]  ].
2 | network_0/router_level3_3/vc_allocator | Input grants = [ 24 -> 56  28 -> 60  ], output grants = [ 56 -> 24  60 -> 28  ].
2 | network_0/router_level3_3 | Assigning VC 0 at output 14 to VC 0 at input 6.
2 | network_0/router_level3_3 | Assigning VC 0 at output 15 to VC 0 at input 7.
2 | network_0/router_level3_3 | Completed VC allocation for VC 0 at input 6 (front: 9).
2 | network_0/router_level3_3 |   Acquiring assigned VC 0 at output 14.
2 | network_0/router_level3_3/buf_6/vc_0 | Changing state from vc_alloc to active.
2 | network_0/router_level3_3 | Completed VC allocation for VC 0 at input 7 (front: 10).
2 | network_0/router_level3_3 |   Acquiring assigned VC 0 at output 15.
2 | network_0/router_level3_3/buf_7/vc_0 | Changing state from vc_alloc to active.
3 | network_0/router_level3_1 | Beginning VC allocation for VC 0 at input 6 (front: 4).
3 | network_0/router_level3_1 |   VC 0 at output 9 is in use by VC 0 at input 5 (front flit: 3).
3 | network_0/router_level3_1 |   Requesting VC 1 at output 9 (in_pri: 0, out_pri: 0).
3 | network_0/router_level3_1 |   Requesting VC 2 at output 9 (in_pri: 0, out_pri: 0).
3 | network_0/router_level3_1 |   Requesting VC 3 at output 9 (in_pri: 0, out_pri: 0).
3 | network_0/router_level3_1/vc_allocator | Input requests = [ 5 -> [ 41@0 42@0 43@0 ]  17 -> [ 45@0 46@0 47@0 ]  21 -> [ 45@0 46@0 47@0 ]  24 -> [ 37@0 38@0 39@0 ]  25 -> [ 49@0 50@0 51@0 ]  ], output requests = [ 37 -> [ 24@0 ]  38 -> [ 24@0 ]  39 -> [ 24@0 ]  41 -> [ 5@0 ]  42 -> [ 5@0 ]  43 -> [ 5@0 ]  45 -> [ 17@0 21@0 ]  46 -> [ 17@0 21@0 ]  47 -> [ 17@0 21@0 ]  49 -> [ 25@0 ]  50 -> [ 25@0 ]  51 -> [ 25@0 ]  ].
3 | network_0/router_level3_1/vc_allocator | Input grants = [ 5 -> 41  17 -> 45  24 -> 37  25 -> 49  ], output grants = [ 37 -> 24  41 -> 5  45 -> 17  49 -> 25  ].
3 | network_0/router_level3_1 | Assigning VC 1 at output 9 to VC 0 at input 6.
3 | network_0/router_level3_1 | Beginning switch allocation for VC 0 at input 3 (front: 1).
3 | network_0/router_level3_1 |   Requesting output 8.0 (non-spec, pri: 0).
3 | network_0/router_level3_1 | Beginning switch allocation for VC 0 at input 4 (front: 2).
3 | network_0/router_level3_1 |   Requesting output 10.0 (non-spec, pri: 0).
3 | network_0/router_level3_1 | Beginning switch allocation for VC 0 at input 5 (front: 3).
3 | network_0/router_level3_1 |   Requesting output 9.0 (non-spec, pri: 0).
3 | network_0/router_level3_1 | Beginning switch allocation for VC 0 at input 7 (front: 5).
3 | network_0/router_level3_1 |   Requesting output 12.0 (non-spec, pri: 0).
3 | network_0/router_level3_1/sw_allocator | Input requests = [ 1 -> [ 11@0 ]  3 -> [ 8@0 ]  4 -> [ 10@0 ]  5 -> [ 9@0 ]  7 -> [ 12@0 ]  ], output requests = [ 8 -> [ 3@0 ]  9 -> [ 5@0 ]  10 -> [ 4@0 ]  11 -> [ 1@0 ]  12 -> [ 7@0 ]  ].
3 | network_0/router_level3_1/sw_allocator | Input grants = [ 1 -> 11  3 -> 8  4 -> 10  5 -> 9  7 -> 12  ], output grants = [ 8 -> 3  9 -> 5  10 -> 4  11 -> 1  12 -> 7  ].
3 | network_0/router_level3_1 | Assigning output 8.0 to VC 0 at input 3.0.
3 | network_0/router_level3_1 | Assigning output 10.0 to VC 0 at input 4.0.
3 | network_0/router_level3_1 | Assigning output 9.0 to VC 0 at input 5.0.
3 | network_0/router_level3_1 | Assigning output 12.0 to VC 0 at input 7.0.
3 | network_0/router_level3_1 | Completed VC allocation for VC 0 at input 6 (front: 4).
3 | network_0/router_level3_1 |   Acquiring assigned VC 1 at output 9.
3 | network_0/router_level3_1/buf_6/vc_0 | Changing state from vc_alloc to active.
3 | network_0/router_level3_1 | Completed switch allocation for VC 0 at input 3 (front: 1).
3 | network_0/router_level3_1 |   Scheduling switch connection from input 3.0 to output 8.0.
3 | network_0/router_level3_1 | Updating lookahead routing information for flit 1.
3 | network_0/router_level3_1 | Completed switch allocation for VC 0 at input 4 (front: 2).
3 | network_0/router_level3_1 |   Scheduling switch connection from input 4.0 to output 10.0.
3 | network_0/router_level3_1 | Updating lookahead routing information for flit 2.
3 | network_0/router_level3_1 | Completed switch allocation for VC 0 at input 5 (front: 3).
3 | network_0/router_level3_1 |   Scheduling switch connection from input 5.0 to output 9.0.
3 | network_0/router_level3_1 | Updating lookahead routing information for flit 3.
3 | network_0/router_level3_1 | Completed switch allocation for VC 0 at input 7 (front: 5).
3 | network_0/router_level3_1 |   Scheduling switch connection from input 7.0 to output 12.0.
3 | network_0/router_level3_1 | Updating lookahead routing information for flit 5.
3 | network_0/router_level3_2 | Beginning switch allocation for VC 0 at input 2 (front: 6).
3 | network_0/router_level3_2 |   Requesting output 12.0 (non-spec, pri: 0).
3 | network_0/router_level3_2 | Beginning switch allocation for VC 0 at input 3 (front: 7).
3 | network_0/router_level3_2 |   Requesting output 11.0 (non-spec, pri: 0).
3 | network_0/router_level3_2 | Beginning switch allocation for VC 0 at input 4 (front: 8).
3 | network_0/router_level3_2 |   Requesting output 14.0 (non-spec, pri: 0).
3 | network_0/router_level3_2/sw_allocator | Input requests = [ 2 -> [ 12@0 ]  3 -> [ 11@0 ]  4 -> [ 14@0 ]  ], output requests = [ 11 -> [ 3@0 ]  12 -> [ 2@0 ]  14 -> [ 4@0 ]  ].
3 | network_0/router_level3_2/sw_allocator | Input grants = [ 2 -> 12  3 -> 11  4 -> 14  ], output grants = [ 11 -> 3  12 -> 2  14 -> 4  ].
3 | network_0/router_level3_2 | Assigning output 12.0 to VC 0 at input 2.0.
3 | network_0/router_level3_2 | Assigning output 11.0 to VC 0 at input 3.0.
3 | network_0/router_level3_2 | Assigning output 14.0 to VC 0 at input 4.0.
3 | network_0/router_level3_2 | Completed switch allocation for VC 0 at input 2 (front: 6).
3 | network_0/router_level3_2 |   Scheduling switch connection from input 2.0 to output 12.0.
3 | network_0/router_level3_2 | Updating lookahead routing information for flit 6.
3 | network_0/router_level3_2 | Completed switch allocation for VC 0 at input 3 (front: 7).
3 | network_0/router_level3_2 |   Scheduling switch connection from input 3.0 to output 11.0.
3 | network_0/router_level3_2 | Updating lookahead routing information for flit 7.
3 | network_0/router_level3_2 | Completed switch allocation for VC 0 at input 4 (front: 8).
3 | network_0/router_level3_2 |   Scheduling switch connection from input 4.0 to output 14.0.
3 | network_0/router_level3_2 | Updating lookahead routing information for flit 8.
3 | network_0/router_level3_3 | Beginning switch allocation for VC 0 at input 6 (front: 9).
3 | network_0/router_level3_3 |   Requesting output 14.0 (non-spec, pri: 0).
3 | network_0/router_level3_3 | Beginning switch allocation for VC 0 at input 7 (front: 10).
3 | network_0/router_level3_3 |   Requesting output 15.0 (non-spec, pri: 0).
3 | network_0/router_level3_3/sw_allocator | Input requests = [ 6 -> [ 14@0 ]  7 -> [ 15@0 ]  ], output requests = [ 14 -> [ 6@0 ]  15 -> [ 7@0 ]  ].
3 | network_0/router_level3_3/sw_allocator | Input grants = [ 6 -> 14  7 -> 15  ], output grants = [ 14 -> 6  15 -> 7  ].
3 | network_0/router_level3_3 | Assigning output 14.0 to VC 0 at input 6.0.
3 | network_0/router_level3_3 | Assigning output 15.0 to VC 0 at input 7.0.
3 | network_0/router_level3_3 | Completed switch allocation for VC 0 at input 6 (front: 9).
3 | network_0/router_level3_3 |   Scheduling switch connection from input 6.0 to output 14.0.
3 | network_0/router_level3_3 | Updating lookahead routing information for flit 9.
3 | network_0/router_level3_3 | Completed switch allocation for VC 0 at input 7 (front: 10).
3 | network_0/router_level3_3 |   Scheduling switch connection from input 7.0 to output 15.0.
3 | network_0/router_level3_3 | Updating lookahead routing information for flit 10.
4 | network_0/router_level3_1 | Beginning switch allocation for VC 0 at input 6 (front: 4).
4 | network_0/router_level3_1 |   Requesting output 9.0 (non-spec, pri: 0).
4 | network_0/router_level3_1/sw_allocator | Input requests = [ 1 -> [ 10@0 ]  4 -> [ 11@0 ]  6 -> [ 9@0 12@0 ]  ], output requests = [ 9 -> [ 6@0 ]  10 -> [ 1@0 ]  11 -> [ 4@0 ]  12 -> [ 6@0 ]  ].
4 | network_0/router_level3_1/sw_allocator | Input grants = [ 1 -> 10  4 -> 11  6 -> 9  ], output grants = [ 9 -> 6  10 -> 1  11 -> 4  ].
4 | network_0/router_level3_1 | Assigning output 9.0 to VC 0 at input 6.0.
4 | network_0/router_level3_1 | Beginning crossbar traversal for flit 1 from input 3.0 to output 8.0.
4 | network_0/router_level3_1 | Beginning crossbar traversal for flit 2 from input 4.0 to output 10.0.
4 | network_0/router_level3_1 | Beginning crossbar traversal for flit 3 from input 5.0 to output 9.0.
4 | network_0/router_level3_1 | Beginning crossbar traversal for flit 5 from input 7.0 to output 12.0.
4 | network_0/router_level3_1 | Completed switch allocation for VC 0 at input 6 (front: 4).
4 | network_0/router_level3_1 |   Scheduling switch connection from input 6.0 to output 9.0.
4 | network_0/router_level3_1 | Updating lookahead routing information for flit 4.
4 | network_0/router_level3_1 | Completed crossbar traversal for flit 1 from input 3.0 to output 8.0.
4 | network_0/router_level3_1 | Buffering flit 1 at output 8.
4 | network_0/router_level3_1 | Completed crossbar traversal for flit 2 from input 4.0 to output 10.0.
4 | network_0/router_level3_1 | Buffering flit 2 at output 10.
4 | network_0/router_level3_1 | Completed crossbar traversal for flit 3 from input 5.0 to output 9.0.
4 | network_0/router_level3_1 | Buffering flit 3 at output 9.
4 | network_0/router_level3_1 | Completed crossbar traversal for flit 5 from input 7.0 to output 12.0.
4 | network_0/router_level3_1 | Buffering flit 5 at output 12.
4 | network_0/router_level3_2 | Beginning crossbar traversal for flit 6 from input 2.0 to output 12.0.
4 | network_0/router_level3_2 | Beginning crossbar traversal for flit 7 from input 3.0 to output 11.0.
4 | network_0/router_level3_2 | Beginning crossbar traversal for flit 8 from input 4.0 to output 14.0.
4 | network_0/router_level3_2 | Completed crossbar traversal for flit 6 from input 2.0 to output 12.0.
4 | network_0/router_level3_2 | Buffering flit 6 at output 12.
4 | network_0/router_level3_2 | Completed crossbar traversal for flit 7 from input 3.0 to output 11.0.
4 | network_0/router_level3_2 | Buffering flit 7 at output 11.
4 | network_0/router_level3_2 | Completed crossbar traversal for flit 8 from input 4.0 to output 14.0.
4 | network_0/router_level3_2 | Buffering flit 8 at output 14.
4 | network_0/router_level3_3 | Beginning crossbar traversal for flit 9 from input 6.0 to output 14.0.
4 | network_0/router_level3_3 | Beginning crossbar traversal for flit 10 from input 7.0 to output 15.0.
4 | network_0/router_level3_3 | Completed crossbar traversal for flit 9 from input 6.0 to output 14.0.
4 | network_0/router_level3_3 | Buffering flit 9 at output 14.
4 | network_0/router_level3_3 | Completed crossbar traversal for flit 10 from input 7.0 to output 15.0.
4 | network_0/router_level3_3 | Buffering flit 10 at output 15.
4 | network_0/router_level3_1 | Sending flit 1 to channel at output 8.
4 | network_0/router_level3_1 | Sending flit 3 to channel at output 9.
4 | network_0/router_level3_1 | Sending flit 2 to channel at output 10.
4 | network_0/router_level3_1 | Sending flit 5 to channel at output 12.
4 | network_0/router_level3_2 | Sending flit 7 to channel at output 11.
4 | network_0/router_level3_2 | Sending flit 6 to channel at output 12.
4 | network_0/router_level3_2 | Sending flit 8 to channel at output 14.
4 | network_0/router_level3_3 | Sending flit 9 to channel at output 14.
4 | network_0/router_level3_3 | Sending flit 10 to channel at output 15.
5 | network_0/network_0_fchan_20488 | Beginning channel traversal for flit 1 with delay 1.
5 | network_0/network_0_fchan_20489 | Beginning channel traversal for flit 3 with delay 1.
5 | network_0/network_0_fchan_20490 | Beginning channel traversal for flit 2 with delay 1.
5 | network_0/network_0_fchan_20492 | Beginning channel traversal for flit 5 with delay 1.
5 | network_0/network_0_fchan_20499 | Beginning channel traversal for flit 7 with delay 1.
5 | network_0/network_0_fchan_20500 | Beginning channel traversal for flit 6 with delay 1.
5 | network_0/network_0_fchan_20502 | Beginning channel traversal for flit 8 with delay 1.
5 | network_0/network_0_fchan_20510 | Beginning channel traversal for flit 9 with delay 1.
5 | network_0/network_0_fchan_20511 | Beginning channel traversal for flit 10 with delay 1.
5 | network_0/router_level3_1 | Beginning crossbar traversal for flit 4 from input 6.0 to output 9.0.
5 | network_0/router_level3_1 | Completed crossbar traversal for flit 4 from input 6.0 to output 9.0.
5 | network_0/router_level3_1 | Buffering flit 4 at output 9.
5 | network_0/network_0_fchan_20488 | Completed channel traversal for flit 1.
5 | network_0/network_0_fchan_20489 | Completed channel traversal for flit 3.
5 | network_0/network_0_fchan_20490 | Completed channel traversal for flit 2.
5 | network_0/network_0_fchan_20492 | Completed channel traversal for flit 5.
5 | network_0/network_0_fchan_20499 | Completed channel traversal for flit 7.
5 | network_0/network_0_fchan_20500 | Completed channel traversal for flit 6.
5 | network_0/network_0_fchan_20502 | Completed channel traversal for flit 8.
5 | network_0/network_0_fchan_20510 | Completed channel traversal for flit 9.
5 | network_0/network_0_fchan_20511 | Completed channel traversal for flit 10.
5 | network_0/router_level3_1 | Sending flit 4 to channel at output 9.
6 | network_0/network_0_fchan_20489 | Beginning channel traversal for flit 4 with delay 1.
6 | network_0/router_level2_0 | Received flit 1 from channel at input 1.
6 | network_0/router_level2_1 | Received flit 3 from channel at input 1.
6 | network_0/router_level2_2 | Received flit 2 from channel at input 1.
6 | network_0/router_level2_3 | Received flit 7 from channel at input 2.
6 | network_0/router_level2_4 | Received flit 5 from channel at input 1.
6 | network_0/router_level2_4 | Received flit 6 from channel at input 2.
6 | network_0/router_level2_6 | Received flit 8 from channel at input 2.
6 | network_0/router_level2_6 | Received flit 9 from channel at input 3.
6 | network_0/router_level2_7 | Received flit 10 from channel at input 3.
6 | network_0/router_level2_0 | Adding flit 1 to VC 0 at input 1 (state: idle, empty).
6 | network_0/router_level2_0 | Using precomputed lookahead routing information for VC 0 at input 1 (front: 1).
6 | network_0/router_level2_0/buf_1/vc_0 | Changing state from idle to vc_alloc.
6 | network_0/router_level2_0 | Beginning VC allocation for VC 0 at input 1 (front: 1).
6 | network_0/router_level2_0 |   Requesting VC 0 at output 10 (in_pri: 0, out_pri: 0).
6 | network_0/router_level2_0 |   Requesting VC 1 at output 10 (in_pri: 0, out_pri: 0).
6 | network_0/router_level2_0 |   Requesting VC 2 at output 10 (in_pri: 0, out_pri: 0).
6 | network_0/router_level2_0 |   Requesting VC 3 at output 10 (in_pri: 0, out_pri: 0).
6 | network_0/router_level2_0/vc_allocator | Input requests = [ 4 -> [ 40@0 41@0 42@0 43@0 ]  ], output requests = [ 40 -> [ 4@0 ]  41 -> [ 4@0 ]  42 -> [ 4@0 ]  43 -> [ 4@0 ]  ].
6 | network_0/router_level2_0/vc_allocator | Input grants = [ 4 -> 40  ], output grants = [ 40 -> 4  ].
6 | network_0/router_level2_0 | Assigning VC 0 at output 10 to VC 0 at input 1.
6 | network_0/router_level2_0 | Completed VC allocation for VC 0 at input 1 (front: 1).
6 | network_0/router_level2_0 |   Acquiring assigned VC 0 at output 10.
6 | network_0/router_level2_0/buf_1/vc_0 | Changing state from vc_alloc to active.
6 | network_0/router_level2_1 | Adding flit 3 to VC 0 at input 1 (state: idle, empty).
6 | network_0/router_level2_1 | Using precomputed lookahead routing information for VC 0 at input 1 (front: 3).
6 | network_0/router_level2_1/buf_1/vc_0 | Changing state from idle to vc_alloc.
6 | network_0/router_level2_1 | Beginning VC allocation for VC 0 at input 1 (front: 3).
6 | network_0/router_level2_1 |   Requesting VC 0 at output 15 (in_pri: 0, out_pri: 0).
6 | network_0/router_level2_1 |   Requesting VC 1 at output 15 (in_pri: 0, out_pri: 0).
6 | network_0/router_level2_1 |   Requesting VC 2 at output 15 (in_pri: 0, out_pri: 0).
6 | network_0/router_level2_1 |   Requesting VC 3 at output 15 (in_pri: 0, out_pri: 0).
6 | network_0/router_level2_1/vc_allocator | Input requests = [ 4 -> [ 60@0 61@0 62@0 63@0 ]  24 -> [ 40@0 41@0 42@0 43@0 ]  ], output requests = [ 40 -> [ 24@0 ]  41 -> [ 24@0 ]  42 -> [ 24@0 ]  43 -> [ 24@0 ]  60 -> [ 4@0 ]  61 -> [ 4@0 ]  62 -> [ 4@0 ]  63 -> [ 4@0 ]  ].
6 | network_0/router_level2_1/vc_allocator | Input grants = [ 4 -> 60  24 -> 40  ], output grants = [ 40 -> 24  60 -> 4  ].
6 | network_0/router_level2_1 | Assigning VC 0 at output 15 to VC 0 at input 1.
6 | network_0/router_level2_1 | Completed VC allocation for VC 0 at input 1 (front: 3).
6 | network_0/router_level2_1 |   Acquiring assigned VC 0 at output 15.
6 | network_0/router_level2_1/buf_1/vc_0 | Changing state from vc_alloc to active.
6 | network_0/router_level2_2 | Adding flit 2 to VC 0 at input 1 (state: idle, empty).
6 | network_0/router_level2_2 | Using precomputed lookahead routing information for VC 0 at input 1 (front: 2).
6 | network_0/router_level2_2/buf_1/vc_0 | Changing state from idle to vc_alloc.
6 | network_0/router_level2_2 | Beginning VC allocation for VC 0 at input 1 (front: 2).
6 | network_0/router_level2_2 |   Requesting VC 0 at output 11 (in_pri: 0, out_pri: 0).
6 | network_0/router_level2_2 |   Requesting VC 1 at output 11 (in_pri: 0, out_pri: 0).
6 | network_0/router_level2_2 |   Requesting VC 2 at output 11 (in_pri: 0, out_pri: 0).
6 | network_0/router_level2_2 |   Requesting VC 3 at output 11 (in_pri: 0, out_pri: 0).
6 | network_0/router_level2_2/vc_allocator | Input requests = [ 4 -> [ 44@0 45@0 46@0 47@0 ]  24 -> [ 56@0 57@0 58@0 59@0 ]  28 -> [ 44@0 45@0 46@0 47@0 ]  ], output requests = [ 44 -> [ 4@0 28@0 ]  45 -> [ 4@0 28@0 ]  46 -> [ 4@0 28@0 ]  47 -> [ 4@0 28@0 ]  56 -> [ 24@0 ]  57 -> [ 24@0 ]  58 -> [ 24@0 ]  59 -> [ 24@0 ]  ].
6 | network_0/router_level2_2/vc_allocator | Input grants = [ 4 -> 44  24 -> 56  ], output grants = [ 44 -> 4  56 -> 24  ].
6 | network_0/router_level2_2 | Assigning VC 0 at output 11 to VC 0 at input 1.
6 | network_0/router_level2_2 | Completed VC allocation for VC 0 at input 1 (front: 2).
6 | network_0/router_level2_2 |   Acquiring assigned VC 0 at output 11.
6 | network_0/router_level2_2/buf_1/vc_0 | Changing state from vc_alloc to active.
6 | network_0/router_level2_3 | Adding flit 7 to VC 0 at input 2 (state: idle, empty).
6 | network_0/router_level2_3 | Using precomputed lookahead routing information for VC 0 at input 2 (front: 7).
6 | network_0/router_level2_3/buf_2/vc_0 | Changing state from idle to vc_alloc.
6 | network_0/router_level2_3 | Beginning VC allocation for VC 0 at input 2 (front: 7).
6 | network_0/router_level2_3 |   Requesting VC 0 at output 8 (in_pri: 0, out_pri: 0).
6 | network_0/router_level2_3 |   Requesting VC 1 at output 8 (in_pri: 0, out_pri: 0).
6 | network_0/router_level2_3 |   Requesting VC 2 at output 8 (in_pri: 0, out_pri: 0).
6 | network_0/router_level2_3 |   Requesting VC 3 at output 8 (in_pri: 0, out_pri: 0).
6 | network_0/router_level2_3/vc_allocator | Input requests = [ 4 -> [ 36@0 37@0 38@0 39@0 ]  8 -> [ 32@0 33@0 34@0 35@0 ]  28 -> [ 36@0 37@0 38@0 39@0 ]  ], output requests = [ 32 -> [ 8@0 ]  33 -> [ 8@0 ]  34 -> [ 8@0 ]  35 -> [ 8@0 ]  36 -> [ 4@0 28@0 ]  37 -> [ 4@0 28@0 ]  38 -> [ 4@0 28@0 ]  39 -> [ 4@0 28@0 ]  ].
6 | network_0/router_level2_3/vc_allocator | Input grants = [ 4 -> 36  8 -> 32  ], output grants = [ 32 -> 8  36 -> 4  ].
6 | network_0/router_level2_3 | Assigning VC 0 at output 8 to VC 0 at input 2.
6 | network_0/router_level2_3 | Completed VC allocation for VC 0 at input 2 (front: 7).
6 | network_0/router_level2_3 |   Acquiring assigned VC 0 at output 8.
6 | network_0/router_level2_3/buf_2/vc_0 | Changing state from vc_alloc to active.
6 | network_0/router_level2_4 | Adding flit 5 to VC 0 at input 1 (state: idle, empty).
6 | network_0/router_level2_4 | Using precomputed lookahead routing information for VC 0 at input 1 (front: 5).
6 | network_0/router_level2_4/buf_1/vc_0 | Changing state from idle to vc_alloc.
6 | network_0/router_level2_4 | Adding flit 6 to VC 0 at input 2 (state: idle, empty).
6 | network_0/router_level2_4 | Using precomputed lookahead routing information for VC 0 at input 2 (front: 6).
6 | network_0/router_level2_4/buf_2/vc_0 | Changing state from idle to vc_alloc.
6 | network_0/router_level2_4 | Beginning VC allocation for VC 0 at input 1 (front: 5).
6 | network_0/router_level2_4 |   Requesting VC 0 at output 8 (in_pri: 0, out_pri: 0).
6 | network_0/router_level2_4 |   Requesting VC 1 at output 8 (in_pri: 0, out_pri: 0).
6 | network_0/router_level2_4 |   Requesting VC 2 at output 8 (in_pri: 0, out_pri: 0).
6 | network_0/router_level2_4 |   Requesting VC 3 at output 8 (in_pri: 0, out_pri: 0).
6 | network_0/router_level2_4 | Beginning VC allocation for VC 0 at input 2 (front: 6).
6 | network_0/router_level2_4 |   Requesting VC 0 at output 12 (in_pri: 0, out_pri: 0).
6 | network_0/router_level2_4 |   Requesting VC 1 at output 12 (in_pri: 0, out_pri: 0).
6 | network_0/router_level2_4 |   Requesting VC 2 at output 12 (in_pri: 0, out_pri: 0).
6 | network_0/router_level2_4 |   Requesting VC 3 at output 12 (in_pri: 0, out_pri: 0).
6 | network_0/router_level2_4/vc_allocator | Input requests = [ 4 -> [ 32@0 33@0 34@0 35@0 ]  8 -> [ 48@0 49@0 50@0 51@0 ]  28 -> [ 36@0 37@0 38@0 39@0 ]  ], output requests = [ 32 -> [ 4@0 ]  33 -> [ 4@0 ]  34 -> [ 4@0 ]  35 -> [ 4@0 ]  36 -> [ 28@0 ]  37 -> [ 28@0 ]  38 -> [ 28@0 ]  39 -> [ 28@0 ]  48 -> [ 8@0 ]  49 -> [ 8@0 ]  50 -> [ 8@0 ]  51 -> [ 8@0 ]  ].
6 | network_0/router_level2_4/vc_allocator | Input grants = [ 4 -> 32  8 -> 48  28 -> 36  ], output grants = [ 32 -> 4  36 -> 28  48 -> 8  ].
6 | network_0/router_level2_4 | Assigning VC 0 at output 8 to VC 0 at input 1.
6 | network_0/router_level2_4 | Assigning VC 0 at output 12 to VC 0 at input 2.
6 | network_0/router_level2_4 | Completed VC allocation for VC 0 at input 1 (front: 5).
6 | network_0/router_level2_4 |   Acquiring assigned VC 0 at output 8.
6 | network_0/router_level2_4/buf_1/vc_0 | Changing state from vc_alloc to active.
6 | network_0/router_level2_4 | Completed VC allocation for VC 0 at input 2 (front: 6).
6 | network_0/router_level2_4 |   Acquiring assigned VC 0 at output 12.
6 | network_0/router_level2_4/buf_2/vc_0 | Changing state from vc_alloc to active.
6 | network_0/router_level2_6 | Adding flit 8 to VC 0 at input 2 (state: idle, empty).
6 | network_0/router_level2_6 | Using precomputed lookahead routing information for VC 0 at input 2 (front: 8).
6 | network_0/router_level2_6/buf_2/vc_0 | Changing state from idle to vc_alloc.
6 | network_0/router_level2_6 | Adding flit 9 to VC 0 at input 3 (state: idle, empty).
6 | network_0/router_level2_6 | Using precomputed lookahead routing information for VC 0 at input 3 (front: 9).
6 | network_0/router_level2_6/buf_3/vc_0 | Changing state from idle to vc_alloc.
6 | network_0/router_level2_6 | Beginning VC allocation for VC 0 at input 2 (front: 8).
6 | network_0/router_level2_6 |   Requesting VC 0 at output 10 (in_pri: 0, out_pri: 0).
6 | network_0/router_level2_6 |   Requesting VC 1 at output 10 (in_pri: 0, out_pri: 0).
6 | network_0/router_level2_6 |   Requesting VC 2 at output 10 (in_pri: 0, out_pri: 0).
6 | network_0/router_level2_6 |   Requesting VC 3 at output 10 (in_pri: 0, out_pri: 0).
6 | network_0/router_level2_6 | Beginning VC allocation for VC 0 at input 3 (front: 9).
6 | network_0/router_level2_6 |   Requesting VC 0 at output 15 (in_pri: 0, out_pri: 0).
6 | network_0/router_level2_6 |   Requesting VC 1 at output 15 (in_pri: 0, out_pri: 0).
6 | network_0/router_level2_6 |   Requesting VC 2 at output 15 (in_pri: 0, out_pri: 0).
6 | network_0/router_level2_6 |   Requesting VC 3 at output 15 (in_pri: 0, out_pri: 0).
6 | network_0/router_level2_6/vc_allocator | Input requests = [ 8 -> [ 40@0 41@0 42@0 43@0 ]  12 -> [ 60@0 61@0 62@0 63@0 ]  20 -> [ 36@0 37@0 38@0 39@0 ]  ], output requests = [ 36 -> [ 20@0 ]  37 -> [ 20@0 ]  38 -> [ 20@0 ]  39 -> [ 20@0 ]  40 -> [ 8@0 ]  41 -> [ 8@0 ]  42 -> [ 8@0 ]  43 -> [ 8@0 ]  60 -> [ 12@0 ]  61 -> [ 12@0 ]  62 -> [ 12@0 ]  63 -> [ 12@0 ]  ].
6 | network_0/router_level2_6/vc_allocator | Input grants = [ 8 -> 40  12 -> 60  20 -> 36  ], output grants = [ 36 -> 20  40 -> 8  60 -> 12  ].
6 | network_0/router_level2_6 | Assigning VC 0 at output 10 to VC 0 at input 2.
6 | network_0/router_level2_6 | Assigning VC 0 at output 15 to VC 0 at input 3.
6 | network_0/router_level2_6 | Completed VC allocation for VC 0 at input 2 (front: 8).
6 | network_0/router_level2_6 |   Acquiring assigned VC 0 at output 10.
6 | network_0/router_level2_6/buf_2/vc_0 | Changing state from vc_alloc to active.
6 | network_0/router_level2_6 | Completed VC allocation for VC 0 at input 3 (front: 9).
6 | network_0/router_level2_6 |   Acquiring assigned VC 0 at output 15.
6 | network_0/router_level2_6/buf_3/vc_0 | Changing state from vc_alloc to active.
6 | network_0/router_level2_7 | Adding flit 10 to VC 0 at input 3 (state: idle, empty).
6 | network_0/router_level2_7 | Using precomputed lookahead routing information for VC 0 at input 3 (front: 10).
6 | network_0/router_level2_7/buf_3/vc_0 | Changing state from idle to vc_alloc.
6 | network_0/router_level2_7 | Beginning VC allocation for VC 0 at input 3 (front: 10).
6 | network_0/router_level2_7 |   Requesting VC 0 at output 12 (in_pri: 0, out_pri: 0).
6 | network_0/router_level2_7 |   Requesting VC 1 at output 12 (in_pri: 0, out_pri: 0).
6 | network_0/router_level2_7 |   Requesting VC 2 at output 12 (in_pri: 0, out_pri: 0).
6 | network_0/router_level2_7 |   Requesting VC 3 at output 12 (in_pri: 0, out_pri: 0).
6 | network_0/router_level2_7/vc_allocator | Input requests = [ 12 -> [ 48@0 49@0 50@0 51@0 ]  20 -> [ 40@0 41@0 42@0 43@0 ]  ], output requests = [ 40 -> [ 20@0 ]  41 -> [ 20@0 ]  42 -> [ 20@0 ]  43 -> [ 20@0 ]  48 -> [ 12@0 ]  49 -> [ 12@0 ]  50 -> [ 12@0 ]  51 -> [ 12@0 ]  ].
6 | network_0/router_level2_7/vc_allocator | Input grants = [ 12 -> 48  20 -> 40  ], output grants = [ 40 -> 20  48 -> 12  ].
6 | network_0/router_level2_7 | Assigning VC 0 at output 12 to VC 0 at input 3.
6 | network_0/router_level2_7 | Completed VC allocation for VC 0 at input 3 (front: 10).
6 | network_0/router_level2_7 |   Acquiring assigned VC 0 at output 12.
6 | network_0/router_level2_7/buf_3/vc_0 | Changing state from vc_alloc to active.
6 | network_0/network_0_fchan_20489 | Completed channel traversal for flit 4.
7 | network_0/router_level2_1 | Received flit 4 from channel at input 1.
7 | network_0/router_level2_0 | Beginning switch allocation for VC 0 at input 1 (front: 1).
7 | network_0/router_level2_0 |   Requesting output 10.0 (non-spec, pri: 0).
7 | network_0/router_level2_0/sw_allocator | Input requests = [ 1 -> [ 10@0 ]  ], output requests = [ 10 -> [ 1@0 ]  ].
7 | network_0/router_level2_0/sw_allocator | Input grants = [ 1 -> 10  ], output grants = [ 10 -> 1  ].
7 | network_0/router_level2_0 | Assigning output 10.0 to VC 0 at input 1.0.
7 | network_0/router_level2_0 | Completed switch allocation for VC 0 at input 1 (front: 1).
7 | network_0/router_level2_0 |   Scheduling switch connection from input 1.0 to output 10.0.
7 | network_0/router_level2_0 | Updating lookahead routing information for flit 1.
7 | network_0/router_level2_1 | Adding flit 4 to VC 1 at input 1 (state: idle, empty).
7 | network_0/router_level2_1 | Using precomputed lookahead routing information for VC 1 at input 1 (front: 4).
7 | network_0/router_level2_1/buf_1/vc_1 | Changing state from idle to vc_alloc.
7 | network_0/router_level2_1 | Beginning VC allocation for VC 1 at input 1 (front: 4).
7 | network_0/router_level2_1 |   VC 0 at output 10 is in use by VC 0 at input 6 (front flit: 15).
7 | network_0/router_level2_1 |   Requesting VC 1 at output 10 (in_pri: 0, out_pri: 0).
7 | network_0/router_level2_1 |   Requesting VC 2 at output 10 (in_pri: 0, out_pri: 0).
7 | network_0/router_level2_1 |   Requesting VC 3 at output 10 (in_pri: 0, out_pri: 0).
7 | network_0/router_level2_1/vc_allocator | Input requests = [ 5 -> [ 41@0 42@0 43@0 ]  20 -> [ 44@0 45@0 46@0 47@0 ]  28 -> [ 41@0 42@0 43@0 ]  ], output requests = [ 41 -> [ 5@0 28@0 ]  42 -> [ 5@0 28@0 ]  43 -> [ 5@0 28@0 ]  44 -> [ 20@0 ]  45 -> [ 20@0 ]  46 -> [ 20@0 ]  47 -> [ 20@0 ]  ].
7 | network_0/router_level2_1/vc_allocator | Input grants = [ 5 -> 41  20 -> 44  ], output grants = [ 41 -> 5  44 -> 20  ].
7 | network_0/router_level2_1 | Assigning VC 1 at output 10 to VC 1 at input 1.
7 | network_0/router_level2_1 | Beginning switch allocation for VC 0 at input 1 (front: 3).
7 | network_0/router_level2_1 |   Requesting output 15.0 (non-spec, pri: 0).
7 | network_0/router_level2_1/sw_allocator | Input requests = [ 1 -> [ 15@0 ]  6 -> [ 10@0 ]  ], output requests = [ 10 -> [ 6@0 ]  15 -> [ 1@0 ]  ].
7 | network_0/router_level2_1/sw_allocator | Input grants = [ 1 -> 15  6 -> 10  ], output grants = [ 10 -> 6  15 -> 1  ].
7 | network_0/router_level2_1 | Assigning output 15.0 to VC 0 at input 1.0.
7 | network_0/router_level2_1 | Completed VC allocation for VC 1 at input 1 (front: 4).
7 | network_0/router_level2_1 |   Acquiring assigned VC 1 at output 10.
7 | network_0/router_level2_1/buf_1/vc_1 | Changing state from vc_alloc to active.
7 | network_0/router_level2_1 | Completed switch allocation for VC 0 at input 1 (front: 3).
7 | network_0/router_level2_1 |   Scheduling switch connection from input 1.0 to output 15.0.
7 | network_0/router_level2_1 | Updating lookahead routing information for flit 3.
7 | network_0/router_level2_2 | Beginning switch allocation for VC 0 at input 1 (front: 2).
7 | network_0/router_level2_2 |   Requesting output 11.0 (non-spec, pri: 0).
7 | network_0/router_level2_2/sw_allocator | Input requests = [ 1 -> [ 11@0 ]  6 -> [ 14@0 ]  ], output requests = [ 11 -> [ 1@0 ]  14 -> [ 6@0 ]  ].
7 | network_0/router_level2_2/sw_allocator | Input grants = [ 1 -> 11  6 -> 14  ], output grants = [ 11 -> 1  14 -> 6  ].
7 | network_0/router_level2_2 | Assigning output 11.0 to VC 0 at input 1.0.
7 | network_0/router_level2_2 | Completed switch allocation for VC 0 at input 1 (front: 2).
7 | network_0/router_level2_2 |   Scheduling switch connection from input 1.0 to output 11.0.
7 | network_0/router_level2_2 | Updating lookahead routing information for flit 2.
7 | network_0/router_level2_3 | Beginning switch allocation for VC 0 at input 2 (front: 7).
7 | network_0/router_level2_3 |   Requesting output 8.0 (non-spec, pri: 0).
7 | network_0/router_level2_3/sw_allocator | Input requests = [ 1 -> [ 9@0 ]  2 -> [ 8@0 ]  ], output requests = [ 8 -> [ 2@0 ]  9 -> [ 1@0 ]  ].
7 | network_0/router_level2_3/sw_allocator | Input grants = [ 1 -> 9  2 -> 8  ], output grants = [ 8 -> 2  9 -> 1  ].
7 | network_0/router_level2_3 | Assigning output 8.0 to VC 0 at input 2.0.
7 | network_0/router_level2_3 | Completed switch allocation for VC 0 at input 2 (front: 7).
7 | network_0/router_level2_3 |   Scheduling switch connection from input 2.0 to output 8.0.
7 | network_0/router_level2_3 | Updating lookahead routing information for flit 7.
7 | network_0/router_level2_4 | Beginning switch allocation for VC 0 at input 1 (front: 5).
7 | network_0/router_level2_4 |   Requesting output 8.0 (non-spec, pri: 0).
7 | network_0/router_level2_4 | Beginning switch allocation for VC 0 at input 2 (front: 6).
7 | network_0/router_level2_4 |   Requesting output 12.0 (non-spec, pri: 0).
7 | network_0/router_level2_4/sw_allocator | Input requests = [ 1 -> [ 8@0 ]  2 -> [ 12@0 ]  7 -> [ 9@0 ]  ], output requests = [ 8 -> [ 1@0 ]  9 -> [ 7@0 ]  12 -> [ 2@0 ]  ].
7 | network_0/router_level2_4/sw_allocator | Input grants = [ 1 -> 8  2 -> 12  7 -> 9  ], output grants = [ 8 -> 1  9 -> 7  12 -> 2  ].
7 | network_0/router_level2_4 | Assigning output 8.0 to VC 0 at input 1.0.
7 | network_0/router_level2_4 | Assigning output 12.0 to VC 0 at input 2.0.
7 | network_0/router_level2_4 | Completed switch allocation for VC 0 at input 1 (front: 5).
7 | network_0/router_level2_4 |   Scheduling switch connection from input 1.0 to output 8.0.
7 | network_0/router_level2_4 | Updating lookahead routing information for flit 5.
7 | network_0/router_level2_4 | Completed switch allocation for VC 0 at input 2 (front: 6).
7 | network_0/router_level2_4 |   Scheduling switch connection from input 2.0 to output 12.0.
7 | network_0/router_level2_4 | Updating lookahead routing information for flit 6.
7 | network_0/router_level2_6 | Beginning switch allocation for VC 0 at input 2 (front: 8).
7 | network_0/router_level2_6 |   Requesting output 10.0 (non-spec, pri: 0).
7 | network_0/router_level2_6 | Beginning switch allocation for VC 0 at input 3 (front: 9).
7 | network_0/router_level2_6 |   Requesting output 15.0 (non-spec, pri: 0).
7 | network_0/router_level2_6/sw_allocator | Input requests = [ 2 -> [ 10@0 ]  3 -> [ 15@0 ]  5 -> [ 9@0 ]  ], output requests = [ 9 -> [ 5@0 ]  10 -> [ 2@0 ]  15 -> [ 3@0 ]  ].
7 | network_0/router_level2_6/sw_allocator | Input grants = [ 2 -> 10  3 -> 15  5 -> 9  ], output grants = [ 9 -> 5  10 -> 2  15 -> 3  ].
7 | network_0/router_level2_6 | Assigning output 10.0 to VC 0 at input 2.0.
7 | network_0/router_level2_6 | Assigning output 15.0 to VC 0 at input 3.0.
7 | network_0/router_level2_6 | Completed switch allocation for VC 0 at input 2 (front: 8).
7 | network_0/router_level2_6 |   Scheduling switch connection from input 2.0 to output 10.0.
7 | network_0/router_level2_6 | Updating lookahead routing information for flit 8.
7 | network_0/router_level2_6 | Completed switch allocation for VC 0 at input 3 (front: 9).
7 | network_0/router_level2_6 |   Scheduling switch connection from input 3.0 to output 15.0.
7 | network_0/router_level2_6 | Updating lookahead routing information for flit 9.
7 | network_0/router_level2_7 | Beginning switch allocation for VC 0 at input 3 (front: 10).
7 | network_0/router_level2_7 |   Requesting output 12.0 (non-spec, pri: 0).
7 | network_0/router_level2_7/sw_allocator | Input requests = [ 3 -> [ 12@0 ]  5 -> [ 10@0 ]  ], output requests = [ 10 -> [ 5@0 ]  12 -> [ 3@0 ]  ].
7 | network_0/router_level2_7/sw_allocator | Input grants = [ 3 -> 12  5 -> 10  ], output grants = [ 10 -> 5  12 -> 3  ].
7 | network_0/router_level2_7 | Assigning output 12.0 to VC 0 at input 3.0.
7 | network_0/router_level2_7 | Completed switch allocation for VC 0 at input 3 (front: 10).
7 | network_0/router_level2_7 |   Scheduling switch connection from input 3.0 to output 12.0.
7 | network_0/router_level2_7 | Updating lookahead routing information for flit 10.
8 | network_0/router_level2_0 | Beginning crossbar traversal for flit 1 from input 1.0 to output 10.0.
8 | network_0/router_level2_0 | Completed crossbar traversal for flit 1 from input 1.0 to output 10.0.
8 | network_0/router_level2_0 | Buffering flit 1 at output 10.
8 | network_0/router_level2_1 | Beginning switch allocation for VC 1 at input 1 (front: 4).
8 | network_0/router_level2_1 |   Requesting output 10.0 (non-spec, pri: 0).
8 | network_0/router_level2_1/sw_allocator | Input requests = [ 1 -> [ 10@0 ]  5 -> [ 11@0 ]  ], output requests = [ 10 -> [ 1@0 ]  11 -> [ 5@0 ]  ].
8 | network_0/router_level2_1/sw_allocator | Input grants = [ 1 -> 10  5 -> 11  ], output grants = [ 10 -> 1  11 -> 5  ].
8 | network_0/router_level2_1 | Assigning output 10.0 to VC 1 at input 1.0.
8 | network_0/router_level2_1 | Beginning crossbar traversal for flit 3 from input 1.0 to output 15.0.
8 | network_0/router_level2_1 | Completed switch allocation for VC 1 at input 1 (front: 4).
8 | network_0/router_level2_1 |   Scheduling switch connection from input 1.0 to output 10.0.
8 | network_0/router_level2_1 | Updating lookahead routing information for flit 4.
8 | network_0/router_level2_1 | Completed crossbar traversal for flit 3 from input 1.0 to output 15.0.
8 | network_0/router_level2_1 | Buffering flit 3 at output 15.
8 | network_0/router_level2_2 | Beginning crossbar traversal for flit 2 from input 1.0 to output 11.0.
8 | network_0/router_level2_2 | Completed crossbar traversal for flit 2 from input 1.0 to output 11.0.
8 | network_0/router_level2_2 | Buffering flit 2 at output 11.
8 | network_0/router_level2_3 | Beginning crossbar traversal for flit 7 from input 2.0 to output 8.0.
8 | network_0/router_level2_3 | Completed crossbar traversal for flit 7 from input 2.0 to output 8.0.
8 | network_0/router_level2_3 | Buffering flit 7 at output 8.
8 | network_0/router_level2_4 | Beginning crossbar traversal for flit 5 from input 1.0 to output 8.0.
8 | network_0/router_level2_4 | Beginning crossbar traversal for flit 6 from input 2.0 to output 12.0.
8 | network_0/router_level2_4 | Completed crossbar traversal for flit 5 from input 1.0 to output 8.0.
8 | network_0/router_level2_4 | Buffering flit 5 at output 8.
8 | network_0/router_level2_4 | Completed crossbar traversal for flit 6 from input 2.0 to output 12.0.
8 | network_0/router_level2_4 | Buffering flit 6 at output 12.
8 | network_0/router_level2_6 | Beginning crossbar traversal for flit 8 from input 2.0 to output 10.0.
8 | network_0/router_level2_6 | Beginning crossbar traversal for flit 9 from input 3.0 to output 15.0.
8 | network_0/router_level2_6 | Completed crossbar traversal for flit 8 from input 2.0 to output 10.0.
8 | network_0/router_level2_6 | Buffering flit 8 at output 10.
8 | network_0/router_level2_6 | Completed crossbar traversal for flit 9 from input 3.0 to output 15.0.
8 | network_0/router_level2_6 | Buffering flit 9 at output 15.
8 | network_0/router_level2_7 | Beginning crossbar traversal for flit 10 from input 3.0 to output 12.0.
8 | network_0/router_level2_7 | Completed crossbar traversal for flit 10 from input 3.0 to output 12.0.
8 | network_0/router_level2_7 | Buffering flit 10 at output 12.
8 | network_0/router_level2_0 | Sending flit 1 to channel at output 10.
8 | network_0/router_level2_1 | Sending flit 3 to channel at output 15.
8 | network_0/router_level2_2 | Sending flit 2 to channel at output 11.
8 | network_0/router_level2_3 | Sending flit 7 to channel at output 8.
8 | network_0/router_level2_4 | Sending flit 5 to channel at output 8.
8 | network_0/router_level2_4 | Sending flit 6 to channel at output 12.
8 | network_0/router_level2_6 | Sending flit 8 to channel at output 10.
8 | network_0/router_level2_6 | Sending flit 9 to channel at output 15.
8 | network_0/router_level2_7 | Sending flit 10 to channel at output 12.
9 | network_0/network_0_fchan_12290 | Beginning channel traversal for flit 1 with delay 1.
9 | network_0/network_0_fchan_12303 | Beginning channel traversal for flit 3 with delay 1.
9 | network_0/network_0_fchan_12307 | Beginning channel traversal for flit 2 with delay 1.
9 | network_0/network_0_fchan_12312 | Beginning channel traversal for flit 7 with delay 1.
9 | network_0/network_0_fchan_12320 | Beginning channel traversal for flit 5 with delay 1.
9 | network_0/network_0_fchan_12324 | Beginning channel traversal for flit 6 with delay 1.
9 | network_0/network_0_fchan_12338 | Beginning channel traversal for flit 8 with delay 1.
9 | network_0/network_0_fchan_12343 | Beginning channel traversal for flit 9 with delay 1.
9 | network_0/network_0_fchan_12348 | Beginning channel traversal for flit 10 with delay 1.
9 | network_0/router_level2_1 | Beginning crossbar traversal for flit 4 from input 1.0 to output 10.0.
9 | network_0/router_level2_1 | Completed crossbar traversal for flit 4 from input 1.0 to output 10.0.
9 | network_0/router_level2_1 | Buffering flit 4 at output 10.
9 | network_0/network_0_fchan_12290 | Completed channel traversal for flit 1.
9 | network_0/network_0_fchan_12303 | Completed channel traversal for flit 3.
9 | network_0/network_0_fchan_12307 | Completed channel traversal for flit 2.
9 | network_0/network_0_fchan_12312 | Completed channel traversal for flit 7.
9 | network_0/network_0_fchan_12320 | Completed channel traversal for flit 5.
9 | network_0/network_0_fchan_12324 | Completed channel traversal for flit 6.
9 | network_0/network_0_fchan_12338 | Completed channel traversal for flit 8.
9 | network_0/network_0_fchan_12343 | Completed channel traversal for flit 9.
9 | network_0/network_0_fchan_12348 | Completed channel traversal for flit 10.
9 | network_0/router_level2_1 | Sending flit 4 to channel at output 10.
10 | network_0/network_0_fchan_12298 | Beginning channel traversal for flit 4 with delay 1.
10 | network_0/router_level1_3 | Received flit 7 from channel at input 0.
10 | network_0/router_level1_4 | Received flit 5 from channel at input 0.
10 | network_0/router_level1_16 | Received flit 1 from channel at input 0.
10 | network_0/router_level1_22 | Received flit 8 from channel at input 0.
10 | network_0/router_level1_26 | Received flit 2 from channel at input 0.
10 | network_0/router_level1_36 | Received flit 6 from channel at input 0.
10 | network_0/router_level1_39 | Received flit 10 from channel at input 0.
10 | network_0/router_level1_57 | Received flit 3 from channel at input 0.
10 | network_0/router_level1_62 | Received flit 9 from channel at input 0.
10 | network_0/router_level1_3 | Adding flit 7 to VC 0 at input 0 (state: idle, empty).
10 | network_0/router_level1_3 | Using precomputed lookahead routing information for VC 0 at input 0 (front: 7).
10 | network_0/router_level1_3/buf_0/vc_0 | Changing state from idle to vc_alloc.
10 | network_0/router_level1_3 | Beginning VC allocation for VC 0 at input 0 (front: 7).
10 | network_0/router_level1_3 |   Requesting VC 0 at output 8 (in_pri: 0, out_pri: 0).
10 | network_0/router_level1_3 |   Requesting VC 1 at output 8 (in_pri: 0, out_pri: 0).
10 | network_0/router_level1_3 |   Requesting VC 2 at output 8 (in_pri: 0, out_pri: 0).
10 | network_0/router_level1_3 |   Requesting VC 3 at output 8 (in_pri: 0, out_pri: 0).
10 | network_0/router_level1_3/vc_allocator | Input requests = [ 0 -> [ 32@0 33@0 34@0 35@0 ]  4 -> [ 44@0 45@0 46@0 47@0 ]  8 -> [ 44@0 45@0 46@0 47@0 ]  16 -> [ 44@0 45@0 46@0 47@0 ]  28 -> [ 36@0 37@0 38@0 39@0 ]  ], output requests = [ 32 -> [ 0@0 ]  33 -> [ 0@0 ]  34 -> [ 0@0 ]  35 -> [ 0@0 ]  36 -> [ 28@0 ]  37 -> [ 28@0 ]  38 -> [ 28@0 ]  39 -> [ 28@0 ]  44 -> [ 4@0 8@0 16@0 ]  45 -> [ 4@0 8@0 16@0 ]  46 -> [ 4@0 8@0 16@0 ]  47 -> [ 4@0 8@0 16@0 ]  ].
10 | network_0/router_level1_3/vc_allocator | Input grants = [ 0 -> 32  4 -> 44  28 -> 36  ], output grants = [ 32 -> 0  36 -> 28  44 -> 4  ].
10 | network_0/router_level1_3 | Assigning VC 0 at output 8 to VC 0 at input 0.
10 | network_0/router_level1_3 | Completed VC allocation for VC 0 at input 0 (front: 7).
10 | network_0/router_level1_3 |   Acquiring assigned VC 0 at output 8.
10 | network_0/router_level1_3/buf_0/vc_0 | Changing state from vc_alloc to active.
10 | network_0/router_level1_4 | Adding flit 5 to VC 0 at input 0 (state: idle, empty).
10 | network_0/router_level1_4 | Using precomputed lookahead routing information for VC 0 at input 0 (front: 5).
10 | network_0/router_level1_4/buf_0/vc_0 | Changing state from idle to vc_alloc.
10 | network_0/router_level1_4 | Beginning VC allocation for VC 0 at input 0 (front: 5).
10 | network_0/router_level1_4 |   Requesting VC 0 at output 11 (in_pri: 0, out_pri: 0).
10 | network_0/router_level1_4 |   Requesting VC 1 at output 11 (in_pri: 0, out_pri: 0).
10 | network_0/router_level1_4 |   Requesting VC 2 at output 11 (in_pri: 0, out_pri: 0).
10 | network_0/router_level1_4 |   Requesting VC 3 at output 11 (in_pri: 0, out_pri: 0).
10 | network_0/router_level1_4/vc_allocator | Input requests = [ 0 -> [ 44@0 45@0 46@0 47@0 ]  4 -> [ 44@0 45@0 46@0 47@0 ]  ], output requests = [ 44 -> [ 0@0 4@0 ]  45 -> [ 0@0 4@0 ]  46 -> [ 0@0 4@0 ]  47 -> [ 0@0 4@0 ]  ].
10 | network_0/router_level1_4/vc_allocator | Input grants = [ 0 -> 44  ], output grants = [ 44 -> 0  ].
10 | network_0/router_level1_4 | Assigning VC 0 at output 11 to VC 0 at input 0.
10 | network_0/router_level1_4 | Completed VC allocation for VC 0 at input 0 (front: 5).
10 | network_0/router_level1_4 |   Acquiring assigned VC 0 at output 11.
10 | network_0/router_level1_4/buf_0/vc_0 | Changing state from vc_alloc to active.
10 | network_0/router_level1_16 | Adding flit 1 to VC 0 at input 0 (state: idle, empty).
10 | network_0/router_level1_16 | Using precomputed lookahead routing information for VC 0 at input 0 (front: 1).
10 | network_0/router_level1_16/buf_0/vc_0 | Changing state from idle to vc_alloc.
10 | network_0/router_level1_16 | Beginning VC allocation for VC 0 at input 0 (front: 1).
10 | network_0/router_level1_16 |   Requesting VC 0 at output 8 (in_pri: 0, out_pri: 0).
10 | network_0/router_level1_16 |   Requesting VC 1 at output 8 (in_pri: 0, out_pri: 0).
10 | network_0/router_level1_16 |   Requesting VC 2 at output 8 (in_pri: 0, out_pri: 0).
10 | network_0/router_level1_16 |   Requesting VC 3 at output 8 (in_pri: 0, out_pri: 0).
10 | network_0/router_level1_16/vc_allocator | Input requests = [ 0 -> [ 32@0 33@0 34@0 35@0 ]  4 -> [ 36@0 37@0 38@0 39@0 ]  20 -> [ 44@0 45@0 46@0 47@0 ]  24 -> [ 32@0 33@0 34@0 35@0 ]  ], output requests = [ 32 -> [ 0@0 24@0 ]  33 -> [ 0@0 24@0 ]  34 -> [ 0@0 24@0 ]  35 -> [ 0@0 24@0 ]  36 -> [ 4@0 ]  37 -> [ 4@0 ]  38 -> [ 4@0 ]  39 -> [ 4@0 ]  44 -> [ 20@0 ]  45 -> [ 20@0 ]  46 -> [ 20@0 ]  47 -> [ 20@0 ]  ].
10 | network_0/router_level1_16/vc_allocator | Input grants = [ 0 -> 32  4 -> 36  20 -> 44  ], output grants = [ 32 -> 0  36 -> 4  44 -> 20  ].
10 | network_0/router_level1_16 | Assigning VC 0 at output 8 to VC 0 at input 0.
10 | network_0/router_level1_16 | Completed VC allocation for VC 0 at input 0 (front: 1).
10 | network_0/router_level1_16 |   Acquiring assigned VC 0 at output 8.
10 | network_0/router_level1_16/buf_0/vc_0 | Changing state from vc_alloc to active.
10 | network_0/router_level1_22 | Adding flit 8 to VC 0 at input 0 (state: idle, empty).
10 | network_0/router_level1_22 | Using precomputed lookahead routing information for VC 0 at input 0 (front: 8).
10 | network_0/router_level1_22/buf_0/vc_0 | Changing state from idle to vc_alloc.
10 | network_0/router_level1_22 | Beginning VC allocation for VC 0 at input 0 (front: 8).
10 | network_0/router_level1_22 |   Requesting VC 0 at output 8 (in_pri: 0, out_pri: 0).
10 | network_0/router_level1_22 |   Requesting VC 1 at output 8 (in_pri: 0, out_pri: 0).
10 | network_0/router_level1_22 |   Requesting VC 2 at output 8 (in_pri: 0, out_pri: 0).
10 | network_0/router_level1_22 |   Requesting VC 3 at output 8 (in_pri: 0, out_pri: 0).
10 | network_0/router_level1_22/vc_allocator | Input requests = [ 0 -> [ 32@0 33@0 34@0 35@0 ]  ], output requests = [ 32 -> [ 0@0 ]  33 -> [ 0@0 ]  34 -> [ 0@0 ]  35 -> [ 0@0 ]  ].
10 | network_0/router_level1_22/vc_allocator | Input grants = [ 0 -> 32  ], output grants = [ 32 -> 0  ].
10 | network_0/router_level1_22 | Assigning VC 0 at output 8 to VC 0 at input 0.
10 | network_0/router_level1_22 | Completed VC allocation for VC 0 at input 0 (front: 8).
10 | network_0/router_level1_22 |   Acquiring assigned VC 0 at output 8.
10 | network_0/router_level1_22/buf_0/vc_0 | Changing state from vc_alloc to active.
10 | network_0/router_level1_26 | Adding flit 2 to VC 0 at input 0 (state: idle, empty).
10 | network_0/router_level1_26 | Using precomputed lookahead routing information for VC 0 at input 0 (front: 2).
10 | network_0/router_level1_26/buf_0/vc_0 | Changing state from idle to vc_alloc.
10 | network_0/router_level1_26 | Beginning VC allocation for VC 0 at input 0 (front: 2).
10 | network_0/router_level1_26 |   Requesting VC 0 at output 8 (in_pri: 0, out_pri: 0).
10 | network_0/router_level1_26 |   Requesting VC 1 at output 8 (in_pri: 0, out_pri: 0).
10 | network_0/router_level1_26 |   Requesting VC 2 at output 8 (in_pri: 0, out_pri: 0).
10 | network_0/router_level1_26 |   Requesting VC 3 at output 8 (in_pri: 0, out_pri: 0).
10 | network_0/router_level1_26/vc_allocator | Input requests = [ 0 -> [ 32@0 33@0 34@0 35@0 ]  8 -> [ 36@0 37@0 38@0 39@0 ]  12 -> [ 40@0 41@0 42@0 43@0 ]  ], output requests = [ 32 -> [ 0@0 ]  33 -> [ 0@0 ]  34 -> [ 0@0 ]  35 -> [ 0@0 ]  36 -> [ 8@0 ]  37 -> [ 8@0 ]  38 -> [ 8@0 ]  39 -> [ 8@0 ]  40 -> [ 12@0 ]  41 -> [ 12@0 ]  42 -> [ 12@0 ]  43 -> [ 12@0 ]  ].
10 | network_0/router_level1_26/vc_allocator | Input grants = [ 0 -> 32  8 -> 36  12 -> 40  ], output grants = [ 32 -> 0  36 -> 8  40 -> 12  ].
10 | network_0/router_level1_26 | Assigning VC 0 at output 8 to VC 0 at input 0.
10 | network_0/router_level1_26 | Completed VC allocation for VC 0 at input 0 (front: 2).
10 | network_0/router_level1_26 |   Acquiring assigned VC 0 at output 8.
10 | network_0/router_level1_26/buf_0/vc_0 | Changing state from vc_alloc to active.
10 | network_0/router_level1_36 | Adding flit 6 to VC 0 at input 0 (state: idle, empty).
10 | network_0/router_level1_36 | Using precomputed lookahead routing information for VC 0 at input 0 (front: 6).
10 | network_0/router_level1_36/buf_0/vc_0 | Changing state from idle to vc_alloc.
10 | network_0/router_level1_36 | Beginning VC allocation for VC 0 at input 0 (front: 6).
10 | network_0/router_level1_36 |   Requesting VC 0 at output 10 (in_pri: 0, out_pri: 0).
10 | network_0/router_level1_36 |   Requesting VC 1 at output 10 (in_pri: 0, out_pri: 0).
10 | network_0/router_level1_36 |   Requesting VC 2 at output 10 (in_pri: 0, out_pri: 0).
10 | network_0/router_level1_36 |   Requesting VC 3 at output 10 (in_pri: 0, out_pri: 0).
10 | network_0/router_level1_36/vc_allocator | Input requests = [ 0 -> [ 40@0 41@0 42@0 43@0 ]  8 -> [ 40@0 41@0 42@0 43@0 ]  ], output requests = [ 40 -> [ 0@0 8@0 ]  41 -> [ 0@0 8@0 ]  42 -> [ 0@0 8@0 ]  43 -> [ 0@0 8@0 ]  ].
10 | network_0/router_level1_36/vc_allocator | Input grants = [ 0 -> 40  ], output grants = [ 40 -> 0  ].
10 | network_0/router_level1_36 | Assigning VC 0 at output 10 to VC 0 at input 0.
10 | network_0/router_level1_36 | Completed VC allocation for VC 0 at input 0 (front: 6).
10 | network_0/router_level1_36 |   Acquiring assigned VC 0 at output 10.
10 | network_0/router_level1_36/buf_0/vc_0 | Changing state from vc_alloc to active.
10 | network_0/router_level1_39 | Adding flit 10 to VC 0 at input 0 (state: idle, empty).
10 | network_0/router_level1_39 | Using precomputed lookahead routing information for VC 0 at input 0 (front: 10).
10 | network_0/router_level1_39/buf_0/vc_0 | Changing state from idle to vc_alloc.
10 | network_0/router_level1_39 | Beginning VC allocation for VC 0 at input 0 (front: 10).
10 | network_0/router_level1_39 |   Requesting VC 0 at output 8 (in_pri: 0, out_pri: 0).
10 | network_0/router_level1_39 |   Requesting VC 1 at output 8 (in_pri: 0, out_pri: 0).
10 | network_0/router_level1_39 |   Requesting VC 2 at output 8 (in_pri: 0, out_pri: 0).
10 | network_0/router_level1_39 |   Requesting VC 3 at output 8 (in_pri: 0, out_pri: 0).
10 | network_0/router_level1_39/vc_allocator | Input requests = [ 0 -> [ 32@0 33@0 34@0 35@0 ]  4 -> [ 44@0 45@0 46@0 47@0 ]  ], output requests = [ 32 -> [ 0@0 ]  33 -> [ 0@0 ]  34 -> [ 0@0 ]  35 -> [ 0@0 ]  44 -> [ 4@0 ]  45 -> [ 4@0 ]  46 -> [ 4@0 ]  47 -> [ 4@0 ]  ].
10 | network_0/router_level1_39/vc_allocator | Input grants = [ 0 -> 32  4 -> 44  ], output grants = [ 32 -> 0  44 -> 4  ].
10 | network_0/router_level1_39 | Assigning VC 0 at output 8 to VC 0 at input 0.
10 | network_0/router_level1_39 | Completed VC allocation for VC 0 at input 0 (front: 10).
10 | network_0/router_level1_39 |   Acquiring assigned VC 0 at output 8.
10 | network_0/router_level1_39/buf_0/vc_0 | Changing state from vc_alloc to active.
10 | network_0/router_level1_57 | Adding flit 3 to VC 0 at input 0 (state: idle, empty).
10 | network_0/router_level1_57 | Using precomputed lookahead routing information for VC 0 at input 0 (front: 3).
10 | network_0/router_level1_57/buf_0/vc_0 | Changing state from idle to vc_alloc.
10 | network_0/router_level1_57 | Beginning VC allocation for VC 0 at input 0 (front: 3).
10 | network_0/router_level1_57 |   Requesting VC 0 at output 9 (in_pri: 0, out_pri: 0).
10 | network_0/router_level1_57 |   Requesting VC 1 at output 9 (in_pri: 0, out_pri: 0).
10 | network_0/router_level1_57 |   Requesting VC 2 at output 9 (in_pri: 0, out_pri: 0).
10 | network_0/router_level1_57 |   Requesting VC 3 at output 9 (in_pri: 0, out_pri: 0).
10 | network_0/router_level1_57/vc_allocator | Input requests = [ 0 -> [ 36@0 37@0 38@0 39@0 ]  4 -> [ 44@0 45@0 46@0 47@0 ]  ], output requests = [ 36 -> [ 0@0 ]  37 -> [ 0@0 ]  38 -> [ 0@0 ]  39 -> [ 0@0 ]  44 -> [ 4@0 ]  45 -> [ 4@0 ]  46 -> [ 4@0 ]  47 -> [ 4@0 ]  ].
10 | network_0/router_level1_57/vc_allocator | Input grants = [ 0 -> 36  4 -> 44  ], output grants = [ 36 -> 0  44 -> 4  ].
10 | network_0/router_level1_57 | Assigning VC 0 at output 9 to VC 0 at input 0.
10 | network_0/router_level1_57 | Completed VC allocation for VC 0 at input 0 (front: 3).
10 | network_0/router_level1_57 |   Acquiring assigned VC 0 at output 9.
10 | network_0/router_level1_57/buf_0/vc_0 | Changing state from vc_alloc to active.
10 | network_0/router_level1_62 | Adding flit 9 to VC 0 at input 0 (state: idle, empty).
10 | network_0/router_level1_62 | Using precomputed lookahead routing information for VC 0 at input 0 (front: 9).
10 | network_0/router_level1_62/buf_0/vc_0 | Changing state from idle to vc_alloc.
10 | network_0/router_level1_62 | Beginning VC allocation for VC 0 at input 0 (front: 9).
10 | network_0/router_level1_62 |   Requesting VC 0 at output 8 (in_pri: 0, out_pri: 0).
10 | network_0/router_level1_62 |   Requesting VC 1 at output 8 (in_pri: 0, out_pri: 0).
10 | network_0/router_level1_62 |   Requesting VC 2 at output 8 (in_pri: 0, out_pri: 0).
10 | network_0/router_level1_62 |   Requesting VC 3 at output 8 (in_pri: 0, out_pri: 0).
10 | network_0/router_level1_62/vc_allocator | Input requests = [ 0 -> [ 32@0 33@0 34@0 35@0 ]  ], output requests = [ 32 -> [ 0@0 ]  33 -> [ 0@0 ]  34 -> [ 0@0 ]  35 -> [ 0@0 ]  ].
10 | network_0/router_level1_62/vc_allocator | Input grants = [ 0 -> 32  ], output grants = [ 32 -> 0  ].
10 | network_0/router_level1_62 | Assigning VC 0 at output 8 to VC 0 at input 0.
10 | network_0/router_level1_62 | Completed VC allocation for VC 0 at input 0 (front: 9).
10 | network_0/router_level1_62 |   Acquiring assigned VC 0 at output 8.
10 | network_0/router_level1_62/buf_0/vc_0 | Changing state from vc_alloc to active.
10 | network_0/network_0_fchan_12298 | Completed channel traversal for flit 4.
11 | network_0/router_level1_17 | Received flit 4 from channel at input 0.
11 | network_0/router_level1_3 | Beginning switch allocation for VC 0 at input 0 (front: 7).
11 | network_0/router_level1_3 |   Requesting output 8.0 (non-spec, pri: 0).
11 | network_0/router_level1_3/sw_allocator | Input requests = [ 0 -> [ 8@0 ]  1 -> [ 11@0 ]  7 -> [ 9@0 ]  ], output requests = [ 8 -> [ 0@0 ]  9 -> [ 7@0 ]  11 -> [ 1@0 ]  ].
11 | network_0/router_level1_3/sw_allocator | Input grants = [ 0 -> 8  1 -> 11  7 -> 9  ], output grants = [ 8 -> 0  9 -> 7  11 -> 1  ].
11 | network_0/router_level1_3 | Assigning output 8.0 to VC 0 at input 0.0.
11 | network_0/router_level1_3 | Completed switch allocation for VC 0 at input 0 (front: 7).
11 | network_0/router_level1_3 |   Scheduling switch connection from input 0.0 to output 8.0.
11 | network_0/router_level1_3 | Updating lookahead routing information for flit 7.
11 | network_0/router_level1_4 | Beginning switch allocation for VC 0 at input 0 (front: 5).
11 | network_0/router_level1_4 |   Requesting output 11.0 (non-spec, pri: 0).
11 | network_0/router_level1_4/sw_allocator | Input requests = [ 0 -> [ 11@0 ]  ], output requests = [ 11 -> [ 0@0 ]  ].
11 | network_0/router_level1_4/sw_allocator | Input grants = [ 0 -> 11  ], output grants = [ 11 -> 0  ].
11 | network_0/router_level1_4 | Assigning output 11.0 to VC 0 at input 0.0.
11 | network_0/router_level1_4 | Completed switch allocation for VC 0 at input 0 (front: 5).
11 | network_0/router_level1_4 |   Scheduling switch connection from input 0.0 to output 11.0.
11 | network_0/router_level1_4 | Updating lookahead routing information for flit 5.
11 | network_0/router_level1_16 | Beginning switch allocation for VC 0 at input 0 (front: 1).
11 | network_0/router_level1_16 |   Requesting output 8.0 (non-spec, pri: 0).
11 | network_0/router_level1_16/sw_allocator | Input requests = [ 0 -> [ 8@0 ]  1 -> [ 9@0 ]  5 -> [ 11@0 ]  ], output requests = [ 8 -> [ 0@0 ]  9 -> [ 1@0 ]  11 -> [ 5@0 ]  ].
11 | network_0/router_level1_16/sw_allocator | Input grants = [ 0 -> 8  1 -> 9  5 -> 11  ], output grants = [ 8 -> 0  9 -> 1  11 -> 5  ].
11 | network_0/router_level1_16 | Assigning output 8.0 to VC 0 at input 0.0.
11 | network_0/router_level1_16 | Completed switch allocation for VC 0 at input 0 (front: 1).
11 | network_0/router_level1_16 |   Scheduling switch connection from input 0.0 to output 8.0.
11 | network_0/router_level1_16 | Updating lookahead routing information for flit 1.
11 | network_0/router_level1_17 | Adding flit 4 to VC 1 at input 0 (state: idle, empty).
11 | network_0/router_level1_17 | Using precomputed lookahead routing information for VC 1 at input 0 (front: 4).
11 | network_0/router_level1_17/buf_0/vc_1 | Changing state from idle to vc_alloc.
11 | network_0/router_level1_17 | Beginning VC allocation for VC 1 at input 0 (front: 4).
11 | network_0/router_level1_17 |   VC 0 at output 11 is in use by VC 0 at input 3 (front flit: 84).
11 | network_0/router_level1_17 |   Requesting VC 1 at output 11 (in_pri: 0, out_pri: 0).
11 | network_0/router_level1_17 |   Requesting VC 2 at output 11 (in_pri: 0, out_pri: 0).
11 | network_0/router_level1_17 |   Requesting VC 3 at output 11 (in_pri: 0, out_pri: 0).
11 | network_0/router_level1_17/vc_allocator | Input requests = [ 1 -> [ 45@0 46@0 47@0 ]  ], output requests = [ 45 -> [ 1@0 ]  46 -> [ 1@0 ]  47 -> [ 1@0 ]  ].
11 | network_0/router_level1_17/vc_allocator | Input grants = [ 1 -> 45  ], output grants = [ 45 -> 1  ].
11 | network_0/router_level1_17 | Assigning VC 1 at output 11 to VC 1 at input 0.
11 | network_0/router_level1_17 | Completed VC allocation for VC 1 at input 0 (front: 4).
11 | network_0/router_level1_17 |   Acquiring assigned VC 1 at output 11.
11 | network_0/router_level1_17/buf_0/vc_1 | Changing state from vc_alloc to active.
11 | network_0/router_level1_22 | Beginning switch allocation for VC 0 at input 0 (front: 8).
11 | network_0/router_level1_22 |   Requesting output 8.0 (non-spec, pri: 0).
11 | network_0/router_level1_22/sw_allocator | Input requests = [ 0 -> [ 8@0 ]  ], output requests = [ 8 -> [ 0@0 ]  ].
11 | network_0/router_level1_22/sw_allocator | Input grants = [ 0 -> 8  ], output grants = [ 8 -> 0  ].
11 | network_0/router_level1_22 | Assigning output 8.0 to VC 0 at input 0.0.
11 | network_0/router_level1_22 | Completed switch allocation for VC 0 at input 0 (front: 8).
11 | network_0/router_level1_22 |   Scheduling switch connection from input 0.0 to output 8.0.
11 | network_0/router_level1_22 | Updating lookahead routing information for flit 8.
11 | network_0/router_level1_26 | Beginning switch allocation for VC 0 at input 0 (front: 2).
11 | network_0/router_level1_26 |   Requesting output 8.0 (non-spec, pri: 0).
11 | network_0/router_level1_26/sw_allocator | Input requests = [ 0 -> [ 8@0 ]  2 -> [ 9@0 ]  3 -> [ 10@0 ]  ], output requests = [ 8 -> [ 0@0 ]  9 -> [ 2@0 ]  10 -> [ 3@0 ]  ].
11 | network_0/router_level1_26/sw_allocator | Input grants = [ 0 -> 8  2 -> 9  3 -> 10  ], output grants = [ 8 -> 0  9 -> 2  10 -> 3  ].
11 | network_0/router_level1_26 | Assigning output 8.0 to VC 0 at input 0.0.
11 | network_0/router_level1_26 | Completed switch allocation for VC 0 at input 0 (front: 2).
11 | network_0/router_level1_26 |   Scheduling switch connection from input 0.0 to output 8.0.
11 | network_0/router_level1_26 | Updating lookahead routing information for flit 2.
11 | network_0/router_level1_36 | Beginning switch allocation for VC 0 at input 0 (front: 6).
11 | network_0/router_level1_36 |   Requesting output 10.0 (non-spec, pri: 0).
11 | network_0/router_level1_36/sw_allocator | Input requests = [ 0 -> [ 10@0 ]  ], output requests = [ 10 -> [ 0@0 ]  ].
11 | network_0/router_level1_36/sw_allocator | Input grants = [ 0 -> 10  ], output grants = [ 10 -> 0  ].
11 | network_0/router_level1_36 | Assigning output 10.0 to VC 0 at input 0.0.
11 | network_0/router_level1_36 | Completed switch allocation for VC 0 at input 0 (front: 6).
11 | network_0/router_level1_36 |   Scheduling switch connection from input 0.0 to output 10.0.
11 | network_0/router_level1_36 | Updating lookahead routing information for flit 6.
11 | network_0/router_level1_39 | Beginning switch allocation for VC 0 at input 0 (front: 10).
[...]
27 | network_0/router_level3_509 | Completed switch allocation for VC 0 at input 12 (front: 6).
27 | network_0/router_level3_509 |   Scheduling switch connection from input 12.0 to output 5.0.
27 | network_0/router_level3_509 | Completed switch allocation for VC 0 at input 14 (front: 8).
27 | network_0/router_level3_509 |   Scheduling switch connection from input 14.0 to output 3.0.
27 | network_0/router_level3_510 | Adding flit 4 to VC 1 at input 9 (state: idle, empty).
27 | network_0/router_level3_510 | Using precomputed lookahead routing information for VC 1 at input 9 (front: 4).
27 | network_0/router_level3_510/buf_9/vc_1 | Changing state from idle to vc_alloc.
27 | network_0/router_level3_510 | Beginning VC allocation for VC 1 at input 9 (front: 4).
27 | network_0/router_level3_510 |   Requesting VC 0 at output 1 (in_pri: 0, out_pri: 0).
27 | network_0/router_level3_510 |   Requesting VC 1 at output 1 (in_pri: 0, out_pri: 0).
27 | network_0/router_level3_510 |   Requesting VC 2 at output 1 (in_pri: 0, out_pri: 0).
27 | network_0/router_level3_510 |   Requesting VC 3 at output 1 (in_pri: 0, out_pri: 0).
27 | network_0/router_level3_510/vc_allocator | Input requests = [ 4 -> [ 60@0 61@0 62@0 63@0 ]  22 -> [ 37@0 38@0 39@0 ]  31 -> [ 37@0 38@0 39@0 ]  37 -> [ 4@0 5@0 6@0 7@0 ]  41 -> [ 25@0 26@0 27@0 ]  45 -> [ 13@0 14@0 15@0 ]  ], output requests = [ 4 -> [ 37@0 ]  5 -> [ 37@0 ]  6 -> [ 37@0 ]  7 -> [ 37@0 ]  13 -> [ 45@0 ]  14 -> [ 45@0 ]  15 -> [ 45@0 ]  25 -> [ 41@0 ]  26 -> [ 41@0 ]  27 -> [ 41@0 ]  37 -> [ 22@0 31@0 ]  38 -> [ 22@0 31@0 ]  39 -> [ 22@0 31@0 ]  60 -> [ 4@0 ]  61 -> [ 4@0 ]  62 -> [ 4@0 ]  63 -> [ 4@0 ]  ].
27 | network_0/router_level3_510/vc_allocator | Input grants = [ 4 -> 60  22 -> 37  37 -> 4  41 -> 25  45 -> 13  ], output grants = [ 4 -> 37  13 -> 45  25 -> 41  37 -> 22  60 -> 4  ].
27 | network_0/router_level3_510 | Assigning VC 0 at output 1 to VC 1 at input 9.
27 | network_0/router_level3_510 | Beginning switch allocation for VC 0 at input 8 (front: 1).
27 | network_0/router_level3_510 |   Requesting output 4.0 (non-spec, pri: 0).
27 | network_0/router_level3_510 | Beginning switch allocation for VC 0 at input 9 (front: 3).
27 | network_0/router_level3_510 |   Requesting output 2.0 (non-spec, pri: 0).
27 | network_0/router_level3_510 | Beginning switch allocation for VC 0 at input 10 (front: 2).
27 | network_0/router_level3_510 |   Requesting output 3.0 (non-spec, pri: 0).
27 | network_0/router_level3_510 | Beginning switch allocation for VC 0 at input 12 (front: 5).
27 | network_0/router_level3_510 |   Requesting output 0.0 (non-spec, pri: 0).
27 | network_0/router_level3_510/sw_allocator | Input requests = [ 1 -> [ 9@0 ]  7 -> [ 13@0 ]  8 -> [ 4@0 ]  9 -> [ 2@0 ]  10 -> [ 3@0 ]  11 -> [ 6@0 ]  12 -> [ 0@0 ]  ], output requests = [ 0 -> [ 12@0 ]  2 -> [ 9@0 ]  3 -> [ 10@0 ]  4 -> [ 8@0 ]  6 -> [ 11@0 ]  9 -> [ 1@0 ]  13 -> [ 7@0 ]  ].
27 | network_0/router_level3_510/sw_allocator | Input grants = [ 1 -> 9  7 -> 13  8 -> 4  9 -> 2  10 -> 3  11 -> 6  12 -> 0  ], output grants = [ 0 -> 12  2 -> 9  3 -> 10  4 -> 8  6 -> 11  9 -> 1  13 -> 7  ].
27 | network_0/router_level3_510 | Assigning output 4.0 to VC 0 at input 8.0.
27 | network_0/router_level3_510 | Assigning output 2.0 to VC 0 at input 9.0.
27 | network_0/router_level3_510 | Assigning output 3.0 to VC 0 at input 10.0.
27 | network_0/router_level3_510 | Assigning output 0.0 to VC 0 at input 12.0.
27 | network_0/router_level3_510 | Completed VC allocation for VC 1 at input 9 (front: 4).
27 | network_0/router_level3_510 |   Acquiring assigned VC 0 at output 1.
27 | network_0/router_level3_510/buf_9/vc_1 | Changing state from vc_alloc to active.
27 | network_0/router_level3_510 | Completed switch allocation for VC 0 at input 8 (front: 1).
27 | network_0/router_level3_510 |   Scheduling switch connection from input 8.0 to output 4.0.
27 | network_0/router_level3_510 | Completed switch allocation for VC 0 at input 9 (front: 3).
27 | network_0/router_level3_510 |   Scheduling switch connection from input 9.0 to output 2.0.
27 | network_0/router_level3_510 | Completed switch allocation for VC 0 at input 10 (front: 2).
27 | network_0/router_level3_510 |   Scheduling switch connection from input 10.0 to output 3.0.
27 | network_0/router_level3_510 | Completed switch allocation for VC 0 at input 12 (front: 5).
27 | network_0/router_level3_510 |   Scheduling switch connection from input 12.0 to output 0.0.
28 | network_0/router_level3_508 | Beginning crossbar traversal for flit 9 from input 14.0 to output 1.0.
28 | network_0/router_level3_508 | Beginning crossbar traversal for flit 10 from input 15.0 to output 0.0.
28 | network_0/router_level3_508 | Completed crossbar traversal for flit 9 from input 14.0 to output 1.0.
28 | network_0/router_level3_508 | Buffering flit 9 at output 1.
28 | network_0/router_level3_508 | Completed crossbar traversal for flit 10 from input 15.0 to output 0.0.
28 | network_0/router_level3_508 | Buffering flit 10 at output 0.
28 | network_0/router_level3_509 | Beginning crossbar traversal for flit 7 from input 11.0 to output 4.0.
28 | network_0/router_level3_509 | Beginning crossbar traversal for flit 6 from input 12.0 to output 5.0.
28 | network_0/router_level3_509 | Beginning crossbar traversal for flit 8 from input 14.0 to output 3.0.
28 | network_0/router_level3_509 | Completed crossbar traversal for flit 7 from input 11.0 to output 4.0.
28 | network_0/router_level3_509 | Buffering flit 7 at output 4.
28 | network_0/router_level3_509 | Completed crossbar traversal for flit 6 from input 12.0 to output 5.0.
28 | network_0/router_level3_509 | Buffering flit 6 at output 5.
28 | network_0/router_level3_509 | Completed crossbar traversal for flit 8 from input 14.0 to output 3.0.
28 | network_0/router_level3_509 | Buffering flit 8 at output 3.
28 | network_0/router_level3_510 | Beginning switch allocation for VC 1 at input 9 (front: 4).
28 | network_0/router_level3_510 |   Requesting output 1.0 (non-spec, pri: 0).
28 | network_0/router_level3_510/sw_allocator | Input requests = [ 1 -> [ 15@0 ]  5 -> [ 9@0 ]  9 -> [ 1@0 ]  10 -> [ 6@0 ]  11 -> [ 3@0 ]  ], output requests = [ 1 -> [ 9@0 ]  3 -> [ 11@0 ]  6 -> [ 10@0 ]  9 -> [ 5@0 ]  15 -> [ 1@0 ]  ].
28 | network_0/router_level3_510/sw_allocator | Input grants = [ 1 -> 15  5 -> 9  9 -> 1  10 -> 6  11 -> 3  ], output grants = [ 1 -> 9  3 -> 11  6 -> 10  9 -> 5  15 -> 1  ].
28 | network_0/router_level3_510 | Assigning output 1.0 to VC 1 at input 9.0.
28 | network_0/router_level3_510 | Beginning crossbar traversal for flit 1 from input 8.0 to output 4.0.
28 | network_0/router_level3_510 | Beginning crossbar traversal for flit 3 from input 9.0 to output 2.0.
28 | network_0/router_level3_510 | Beginning crossbar traversal for flit 2 from input 10.0 to output 3.0.
28 | network_0/router_level3_510 | Beginning crossbar traversal for flit 5 from input 12.0 to output 0.0.
28 | network_0/router_level3_510 | Completed switch allocation for VC 1 at input 9 (front: 4).
28 | network_0/router_level3_510 |   Scheduling switch connection from input 9.0 to output 1.0.
28 | network_0/router_level3_510 | Completed crossbar traversal for flit 1 from input 8.0 to output 4.0.
28 | network_0/router_level3_510 | Buffering flit 1 at output 4.
28 | network_0/router_level3_510 | Completed crossbar traversal for flit 3 from input 9.0 to output 2.0.
28 | network_0/router_level3_510 | Buffering flit 3 at output 2.
28 | network_0/router_level3_510 | Completed crossbar traversal for flit 2 from input 10.0 to output 3.0.
28 | network_0/router_level3_510 | Buffering flit 2 at output 3.
28 | network_0/router_level3_510 | Completed crossbar traversal for flit 5 from input 12.0 to output 0.0.
28 | network_0/router_level3_510 | Buffering flit 5 at output 0.
28 | network_0/router_level3_508 | Sending flit 10 to channel at output 0.
28 | network_0/router_level3_508 | Sending flit 9 to channel at output 1.
28 | network_0/router_level3_509 | Sending flit 8 to channel at output 3.
28 | network_0/router_level3_509 | Sending flit 7 to channel at output 4.
28 | network_0/router_level3_509 | Sending flit 6 to channel at output 5.
28 | network_0/router_level3_510 | Sending flit 5 to channel at output 0.
28 | network_0/router_level3_510 | Sending flit 3 to channel at output 2.
28 | network_0/router_level3_510 | Sending flit 2 to channel at output 3.
28 | network_0/router_level3_510 | Sending flit 1 to channel at output 4.
29 | network_0/network_0_fchan_egress4064 | Beginning channel traversal for flit 10 with delay 1.
29 | network_0/network_0_fchan_egress4065 | Beginning channel traversal for flit 9 with delay 1.
29 | network_0/network_0_fchan_egress4075 | Beginning channel traversal for flit 8 with delay 1.
29 | network_0/network_0_fchan_egress4076 | Beginning channel traversal for flit 7 with delay 1.
29 | network_0/network_0_fchan_egress4077 | Beginning channel traversal for flit 6 with delay 1.
29 | network_0/network_0_fchan_egress4080 | Beginning channel traversal for flit 5 with delay 1.
29 | network_0/network_0_fchan_egress4082 | Beginning channel traversal for flit 3 with delay 1.
29 | network_0/network_0_fchan_egress4083 | Beginning channel traversal for flit 2 with delay 1.
29 | network_0/network_0_fchan_egress4084 | Beginning channel traversal for flit 1 with delay 1.
29 | network_0/router_level3_510 | Beginning crossbar traversal for flit 4 from input 9.0 to output 1.0.
29 | network_0/router_level3_510 | Completed crossbar traversal for flit 4 from input 9.0 to output 1.0.
29 | network_0/router_level3_510 | Buffering flit 4 at output 1.
29 | network_0/network_0_fchan_egress4064 | Completed channel traversal for flit 10.
29 | network_0/network_0_fchan_egress4065 | Completed channel traversal for flit 9.
29 | network_0/network_0_fchan_egress4075 | Completed channel traversal for flit 8.
29 | network_0/network_0_fchan_egress4076 | Completed channel traversal for flit 7.
29 | network_0/network_0_fchan_egress4077 | Completed channel traversal for flit 6.
29 | network_0/network_0_fchan_egress4080 | Completed channel traversal for flit 5.
29 | network_0/network_0_fchan_egress4082 | Completed channel traversal for flit 3.
29 | network_0/network_0_fchan_egress4083 | Completed channel traversal for flit 2.
29 | network_0/network_0_fchan_egress4084 | Completed channel traversal for flit 1.
29 | network_0/router_level3_510 | Sending flit 4 to channel at output 1.
30 | node4064 | Ejecting flit 10 (packet 10) from VC 0.
30 | node4065 | Ejecting flit 9 (packet 9) from VC 0.
30 | node4075 | Ejecting flit 8 (packet 8) from VC 0.
30 | node4076 | Ejecting flit 7 (packet 7) from VC 0.
30 | node4077 | Ejecting flit 6 (packet 6) from VC 0.
30 | node4080 | Ejecting flit 5 (packet 5) from VC 0.
30 | node4082 | Ejecting flit 3 (packet 3) from VC 0.
30 | node4083 | Ejecting flit 2 (packet 2) from VC 0.
30 | node4084 | Ejecting flit 1 (packet 1) from VC 0.
30 | network_0/network_0_fchan_egress4081 | Beginning channel traversal for flit 4 with delay 1.
30 | node4064 | Injecting credit for VC 0 into subnet 0.
30 | node4064 | Retiring flit 10 (packet 10, src = 31, dest = 4064, hops = 7, flat = 30).
30 | node4064 | Retiring packet 10 (plat = 30, nlat = 30, frag = 0, src = 31, dest = 4064).
30 | node4065 | Injecting credit for VC 0 into subnet 0.
30 | node4065 | Retiring flit 9 (packet 9, src = 30, dest = 4065, hops = 7, flat = 30).
30 | node4065 | Retiring packet 9 (plat = 30, nlat = 30, frag = 0, src = 30, dest = 4065).
30 | node4075 | Injecting credit for VC 0 into subnet 0.
30 | node4075 | Retiring flit 8 (packet 8, src = 20, dest = 4075, hops = 7, flat = 30).
30 | node4075 | Retiring packet 8 (plat = 30, nlat = 30, frag = 0, src = 20, dest = 4075).
30 | node4076 | Injecting credit for VC 0 into subnet 0.
30 | node4076 | Retiring flit 7 (packet 7, src = 19, dest = 4076, hops = 7, flat = 30).
30 | node4076 | Retiring packet 7 (plat = 30, nlat = 30, frag = 0, src = 19, dest = 4076).
30 | node4077 | Injecting credit for VC 0 into subnet 0.
30 | node4077 | Retiring flit 6 (packet 6, src = 18, dest = 4077, hops = 7, flat = 30).
30 | node4077 | Retiring packet 6 (plat = 30, nlat = 30, frag = 0, src = 18, dest = 4077).
30 | node4080 | Injecting credit for VC 0 into subnet 0.
30 | node4080 | Retiring flit 5 (packet 5, src = 15, dest = 4080, hops = 7, flat = 30).
30 | node4080 | Retiring packet 5 (plat = 30, nlat = 30, frag = 0, src = 15, dest = 4080).
30 | node4082 | Injecting credit for VC 0 into subnet 0.
30 | node4082 | Retiring flit 3 (packet 3, src = 13, dest = 4082, hops = 7, flat = 30).
30 | node4082 | Retiring packet 3 (plat = 30, nlat = 30, frag = 0, src = 13, dest = 4082).
30 | node4083 | Injecting credit for VC 0 into subnet 0.
30 | node4083 | Retiring flit 2 (packet 2, src = 12, dest = 4083, hops = 7, flat = 30).
30 | node4083 | Retiring packet 2 (plat = 30, nlat = 30, frag = 0, src = 12, dest = 4083).
30 | node4084 | Injecting credit for VC 0 into subnet 0.
30 | node4084 | Retiring flit 1 (packet 1, src = 11, dest = 4084, hops = 7, flat = 30).
30 | node4084 | Retiring packet 1 (plat = 30, nlat = 30, frag = 0, src = 11, dest = 4084).
30 | network_0/network_0_fchan_egress4081 | Completed channel traversal for flit 4.
31 | node4081 | Ejecting flit 4 (packet 4) from VC 0.
31 | node4081 | Injecting credit for VC 0 into subnet 0.
31 | node4081 | Retiring flit 4 (packet 4, src = 14, dest = 4081, hops = 7, flat = 31).
31 | node4081 | Retiring packet 4 (plat = 31, nlat = 31, frag = 0, src = 14, dest = 4081).
Class 0:
Packet latency average = 34.8335
	minimum = 30
	maximum = 97
Network latency average = 34.8335
	minimum = 30
	maximum = 97
Slowest packet = 1033796
Flit latency average = 34.8335
	minimum = 30
	maximum = 97
Slowest flit = 1033796
Fragmentation average = 0
	minimum = 0
	maximum = 0
Injected packet rate average = 0.34969
	minimum = 0.297 (at node 3445)
	maximum = 0.397 (at node 3798)
Accepted packet rate average = 0.33737
	minimum = 0.281 (at node 650)
	maximum = 0.387 (at node 953)
Injected flit rate average = 0.34969
	minimum = 0.297 (at node 3445)
	maximum = 0.397 (at node 3798)
Accepted flit rate average= 0.33737
	minimum = 0.281 (at node 650)
	maximum = 0.387 (at node 953)
Injected packet length average = 1
Accepted packet length average = 1
Total in-flight flits = 50465 (0 measured)
latency change    = 1
throughput change = 1
Class 0:
Packet latency average = 34.9037
	minimum = 30
	maximum = 97
Network latency average = 34.9037
	minimum = 30
	maximum = 97
Slowest packet = 1033796
Flit latency average = 34.9037
	minimum = 30
	maximum = 97
Slowest flit = 1033796
Fragmentation average = 0
	minimum = 0
	maximum = 0
Injected packet rate average = 0.349826
	minimum = 0.3145 (at node 562)
	maximum = 0.385 (at node 790)
Accepted packet rate average = 0.343763
	minimum = 0.3065 (at node 1444)
	maximum = 0.3785 (at node 1394)
Injected flit rate average = 0.349826
	minimum = 0.3145 (at node 562)
	maximum = 0.385 (at node 790)
Accepted flit rate average= 0.343763
	minimum = 0.3065 (at node 1444)
	maximum = 0.3785 (at node 1394)
Injected packet length average = 1
Accepted packet length average = 1
Total in-flight flits = 49664 (0 measured)
latency change    = 0.00201159
throughput change = 0.0185987
Class 0:
Packet latency average = 34.9614
	minimum = 30
	maximum = 95
Network latency average = 34.9614
	minimum = 30
	maximum = 95
Slowest packet = 3402397
Flit latency average = 34.9614
	minimum = 30
	maximum = 95
Slowest flit = 3402397
Fragmentation average = 0
	minimum = 0
	maximum = 0
Injected packet rate average = 0.350069
	minimum = 0.289 (at node 3853)
	maximum = 0.407 (at node 2471)
Accepted packet rate average = 0.349934
	minimum = 0.29 (at node 242)
	maximum = 0.409 (at node 1624)
Injected flit rate average = 0.350069
	minimum = 0.289 (at node 3853)
	maximum = 0.407 (at node 2471)
Accepted flit rate average= 0.349934
	minimum = 0.29 (at node 242)
	maximum = 0.409 (at node 1624)
Injected packet length average = 1
Accepted packet length average = 1
Total in-flight flits = 50220 (0 measured)
latency change    = 0.00165036
throughput change = 0.0176331
Warmed up ...Time used is 3000 cycles
Class 0:
Packet latency average = 34.8797
	minimum = 30
	maximum = 90
Network latency average = 34.8797
	minimum = 30
	maximum = 90
Slowest packet = 5112912
Flit latency average = 34.905
	minimum = 30
	maximum = 90
Slowest flit = 5112912
Fragmentation average = 0
	minimum = 0
	maximum = 0
Injected packet rate average = 0.349566
	minimum = 0.291 (at node 3355)
	maximum = 0.412 (at node 1910)
Accepted packet rate average = 0.349635
	minimum = 0.293 (at node 740)
	maximum = 0.412 (at node 2185)
Injected flit rate average = 0.349566
	minimum = 0.291 (at node 3355)
	maximum = 0.412 (at node 1910)
Accepted flit rate average= 0.349635
	minimum = 0.293 (at node 740)
	maximum = 0.412 (at node 2185)
Injected packet length average = 1
Accepted packet length average = 1
Total in-flight flits = 49936 (49936 measured)
latency change    = 0.00234034
throughput change = 0.000853988
Class 0:
Packet latency average = 34.9282
	minimum = 30
	maximum = 94
Network latency average = 34.9282
	minimum = 30
	maximum = 94
Slowest packet = 6659145
Flit latency average = 34.9399
	minimum = 30
	maximum = 94
Slowest flit = 6659145
Fragmentation average = 0
	minimum = 0
	maximum = 0
Injected packet rate average = 0.349871
	minimum = 0.3145 (at node 2356)
	maximum = 0.387 (at node 2470)
Accepted packet rate average = 0.349913
	minimum = 0.313 (at node 2566)
	maximum = 0.3865 (at node 1625)
Injected flit rate average = 0.349871
	minimum = 0.3145 (at node 2356)
	maximum = 0.387 (at node 2470)
Accepted flit rate average= 0.349913
	minimum = 0.313 (at node 2566)
	maximum = 0.3865 (at node 1625)
Injected packet length average = 1
Accepted packet length average = 1
Total in-flight flits = 49883 (49883 measured)
latency change    = 0.00138627
throughput change = 0.000793306
Class 0:
Packet latency average = 34.9429
	minimum = 30
	maximum = 94
Network latency average = 34.9429
	minimum = 30
	maximum = 94
Slowest packet = 6659145
Flit latency average = 34.9506
	minimum = 30
	maximum = 94
Slowest flit = 6659145
Fragmentation average = 0
	minimum = 0
	maximum = 0
Injected packet rate average = 0.349985
	minimum = 0.317 (at node 3010)
	maximum = 0.378 (at node 3939)
Accepted packet rate average = 0.349984
	minimum = 0.316333 (at node 1085)
	maximum = 0.377 (at node 3053)
Injected flit rate average = 0.349985
	minimum = 0.317 (at node 3010)
	maximum = 0.378 (at node 3939)
Accepted flit rate average= 0.349984
	minimum = 0.316333 (at node 1085)
	maximum = 0.377 (at node 3053)
Injected packet length average = 1
Accepted packet length average = 1
Total in-flight flits = 50231 (50231 measured)
latency change    = 0.000422974
throughput change = 0.00020532
Draining all recorded packets ...
Draining remaining packets ...
Time taken is 6143 cycles
====== Overall Traffic Statistics ======
====== Traffic class 0 ======
Packet latency average = 34.9508 (1 samples)
	minimum = 30 (1 samples)
	maximum = 94 (1 samples)
Network latency average = 34.9508 (1 samples)
	minimum = 30 (1 samples)
	maximum = 94 (1 samples)
Flit latency average = 34.9549 (1 samples)
	minimum = 30 (1 samples)
	maximum = 94 (1 samples)
Fragmentation average = 0 (1 samples)
	minimum = 0 (1 samples)
	maximum = 0 (1 samples)
Injected packet rate average = 0.349985 (1 samples)
	minimum = 0.317 (1 samples)
	maximum = 0.378 (1 samples)
Accepted packet rate average = 0.349984 (1 samples)
	minimum = 0.316333 (1 samples)
	maximum = 0.377 (1 samples)
Injected flit rate average = 0.349985 (1 samples)
	minimum = 0.317 (1 samples)
	maximum = 0.378 (1 samples)
Accepted flit rate average = 0.349984 (1 samples)
	minimum = 0.316333 (1 samples)
	maximum = 0.377 (1 samples)
Injected packet size average = 1 (1 samples)
Accepted packet size average = 1 (1 samples)
Hops average = 7 (1 samples)
Total run time 728.927
