BEGIN Configuration File: examples/fattree_config_0.45_4_transpose
// $Id: dragonflyconfig 3555 2011-05-16 23:37:55Z dub $

// Copyright (c) 2007-2015, Trustees of The Leland Stanford Junior University
// All rights reserved.
//
// Redistribution and use in source and binary forms, with or without
// modification, are permitted provided that the following conditions are met:
//
// Redistributions of source code must retain the above copyright notice, this
// list of conditions and the following disclaimer.
// Redistributions in binary form must reproduce the above copyright notice,
// this list of conditions and the following disclaimer in the documentation
// and/or other materials provided with the distribution.
//
// THIS SOFTWARE IS PROVIDED BY THE COPYRIGHT HOLDERS AND CONTRIBUTORS "AS IS"
// AND ANY EXPRESS OR IMPLIED WARRANTIES, INCLUDING, BUT NOT LIMITED TO, THE
// IMPLIED WARRANTIES OF MERCHANTABILITY AND FITNESS FOR A PARTICULAR PURPOSE
// ARE DISCLAIMED. IN NO EVENT SHALL THE COPYRIGHT OWNER OR CONTRIBUTORS BE
// LIABLE FOR ANY DIRECT, INDIRECT, INCIDENTAL, SPECIAL, EXEMPLARY, OR
// CONSEQUENTIAL DAMAGES (INCLUDING, BUT NOT LIMITED TO, PROCUREMENT OF
// SUBSTITUTE GOODS OR SERVICES; LOSS OF USE, DATA, OR PROFITS; OR BUSINESS
// INTERRUPTION) HOWEVER CAUSED AND ON ANY THEORY OF LIABILITY, WHETHER IN
// CONTRACT, STRICT LIABILITY, OR TORT (INCLUDING NEGLIGENCE OR OTHERWISE)
// ARISING IN ANY WAY OUT OF THE USE OF THIS SOFTWARE, EVEN IF ADVISED OF THE
// POSSIBILITY OF SUCH DAMAGE.


hold_switch_for_packet=1;

vc_buf_size = 16;


wait_for_tail_credit = 0;

//
// Router architecture
//
vc_allocator = separable_input_first; 
sw_allocator = separable_input_first;
alloc_iters  = 1;

credit_delay   = 2;
routing_delay  = 0;
vc_alloc_delay = 1;
sw_alloc_delay = 1;
st_final_delay = 1;

input_speedup     = 1;
output_speedup    = 1;
internal_speedup  = 1.0;


warmup_periods = 3;
sim_count          = 1;

sample_period  = 1000;  

routing_function = nca;
num_vcs     = 4;

priority = none;
traffic = transpose;


injection_rate = 0.45;
packet_size = 1;
injection_rate_uses_flits=1;

topology = fattree;

k  = 8;
n  = 4;
t = 4;

watch_file = watchfile.txt;
watch_out=-;
stats_out = examples/fattree_config_0.45_4_transpose.m;

END Configuration File: examples/fattree_config_0.45_4_transpose
Fat Tree
 k = 8 levels = 4
 each switch - total radix =  16
 # of switches = 2048
 # of channels = 24576
 # of nodes ( size of network ) = 4096
 tapering factor = 4
0 | node8 | Enqueuing flit 1 (packet 1) at time 0.
0 | node9 | Enqueuing flit 2 (packet 2) at time 0.
0 | node11 | Enqueuing flit 3 (packet 3) at time 0.
0 | node12 | Enqueuing flit 4 (packet 4) at time 0.
0 | node13 | Enqueuing flit 5 (packet 5) at time 0.
0 | node14 | Enqueuing flit 6 (packet 6) at time 0.
0 | node15 | Enqueuing flit 7 (packet 7) at time 0.
0 | node18 | Enqueuing flit 8 (packet 8) at time 0.
0 | node19 | Enqueuing flit 9 (packet 9) at time 0.
0 | node20 | Enqueuing flit 10 (packet 10) at time 0.
0 | traffic_manager | Finding output VC for flit 1:
0 | traffic_manager |   Selected output VC 0.
0 | node8 | Generating lookahead routing info for flit 1.
0 | node8 | Injecting flit 1 into subnet 0 at time 0 with priority 0.
0 | traffic_manager | Finding output VC for flit 2:
0 | traffic_manager |   Selected output VC 0.
0 | node9 | Generating lookahead routing info for flit 2.
0 | node9 | Injecting flit 2 into subnet 0 at time 0 with priority 0.
0 | traffic_manager | Finding output VC for flit 3:
0 | traffic_manager |   Selected output VC 0.
0 | node11 | Generating lookahead routing info for flit 3.
0 | node11 | Injecting flit 3 into subnet 0 at time 0 with priority 0.
0 | traffic_manager | Finding output VC for flit 4:
0 | traffic_manager |   Selected output VC 0.
0 | node12 | Generating lookahead routing info for flit 4.
0 | node12 | Injecting flit 4 into subnet 0 at time 0 with priority 0.
0 | traffic_manager | Finding output VC for flit 5:
0 | traffic_manager |   Selected output VC 0.
0 | node13 | Generating lookahead routing info for flit 5.
0 | node13 | Injecting flit 5 into subnet 0 at time 0 with priority 0.
0 | traffic_manager | Finding output VC for flit 6:
0 | traffic_manager |   Selected output VC 0.
0 | node14 | Generating lookahead routing info for flit 6.
0 | node14 | Injecting flit 6 into subnet 0 at time 0 with priority 0.
0 | traffic_manager | Finding output VC for flit 7:
0 | traffic_manager |   Selected output VC 0.
0 | node15 | Generating lookahead routing info for flit 7.
0 | node15 | Injecting flit 7 into subnet 0 at time 0 with priority 0.
0 | traffic_manager | Finding output VC for flit 8:
0 | traffic_manager |   Selected output VC 0.
0 | node18 | Generating lookahead routing info for flit 8.
0 | node18 | Injecting flit 8 into subnet 0 at time 0 with priority 0.
0 | traffic_manager | Finding output VC for flit 9:
0 | traffic_manager |   Selected output VC 0.
0 | node19 | Generating lookahead routing info for flit 9.
0 | node19 | Injecting flit 9 into subnet 0 at time 0 with priority 0.
0 | traffic_manager | Finding output VC for flit 10:
0 | traffic_manager |   Selected output VC 0.
0 | node20 | Generating lookahead routing info for flit 10.
0 | node20 | Injecting flit 10 into subnet 0 at time 0 with priority 0.
1 | network_0/network_0_fchan_ingress8 | Beginning channel traversal for flit 1 with delay 1.
1 | network_0/network_0_fchan_ingress9 | Beginning channel traversal for flit 2 with delay 1.
1 | network_0/network_0_fchan_ingress11 | Beginning channel traversal for flit 3 with delay 1.
1 | network_0/network_0_fchan_ingress12 | Beginning channel traversal for flit 4 with delay 1.
1 | network_0/network_0_fchan_ingress13 | Beginning channel traversal for flit 5 with delay 1.
1 | network_0/network_0_fchan_ingress14 | Beginning channel traversal for flit 6 with delay 1.
1 | network_0/network_0_fchan_ingress15 | Beginning channel traversal for flit 7 with delay 1.
1 | network_0/network_0_fchan_ingress18 | Beginning channel traversal for flit 8 with delay 1.
1 | network_0/network_0_fchan_ingress19 | Beginning channel traversal for flit 9 with delay 1.
1 | network_0/network_0_fchan_ingress20 | Beginning channel traversal for flit 10 with delay 1.
1 | network_0/network_0_fchan_ingress8 | Completed channel traversal for flit 1.
1 | network_0/network_0_fchan_ingress9 | Completed channel traversal for flit 2.
1 | network_0/network_0_fchan_ingress11 | Completed channel traversal for flit 3.
1 | network_0/network_0_fchan_ingress12 | Completed channel traversal for flit 4.
1 | network_0/network_0_fchan_ingress13 | Completed channel traversal for flit 5.
1 | network_0/network_0_fchan_ingress14 | Completed channel traversal for flit 6.
1 | network_0/network_0_fchan_ingress15 | Completed channel traversal for flit 7.
1 | network_0/network_0_fchan_ingress18 | Completed channel traversal for flit 8.
1 | network_0/network_0_fchan_ingress19 | Completed channel traversal for flit 9.
1 | network_0/network_0_fchan_ingress20 | Completed channel traversal for flit 10.
2 | network_0/router_level3_1 | Received flit 1 from channel at input 0.
2 | network_0/router_level3_1 | Received flit 2 from channel at input 1.
2 | network_0/router_level3_1 | Received flit 3 from channel at input 3.
2 | network_0/router_level3_1 | Received flit 4 from channel at input 4.
2 | network_0/router_level3_1 | Received flit 5 from channel at input 5.
2 | network_0/router_level3_1 | Received flit 6 from channel at input 6.
2 | network_0/router_level3_1 | Received flit 7 from channel at input 7.
2 | network_0/router_level3_2 | Received flit 8 from channel at input 2.
2 | network_0/router_level3_2 | Received flit 9 from channel at input 3.
2 | network_0/router_level3_2 | Received flit 10 from channel at input 4.
2 | network_0/router_level3_1 | Adding flit 1 to VC 0 at input 0 (state: idle, empty).
2 | network_0/router_level3_1 | Using precomputed lookahead routing information for VC 0 at input 0 (front: 1).
2 | network_0/router_level3_1/buf_0/vc_0 | Changing state from idle to vc_alloc.
2 | network_0/router_level3_1 | Adding flit 2 to VC 0 at input 1 (state: idle, empty).
2 | network_0/router_level3_1 | Using precomputed lookahead routing information for VC 0 at input 1 (front: 2).
2 | network_0/router_level3_1/buf_1/vc_0 | Changing state from idle to vc_alloc.
2 | network_0/router_level3_1 | Adding flit 3 to VC 0 at input 3 (state: idle, empty).
2 | network_0/router_level3_1 | Using precomputed lookahead routing information for VC 0 at input 3 (front: 3).
2 | network_0/router_level3_1/buf_3/vc_0 | Changing state from idle to vc_alloc.
2 | network_0/router_level3_1 | Adding flit 4 to VC 0 at input 4 (state: idle, empty).
2 | network_0/router_level3_1 | Using precomputed lookahead routing information for VC 0 at input 4 (front: 4).
2 | network_0/router_level3_1/buf_4/vc_0 | Changing state from idle to vc_alloc.
2 | network_0/router_level3_1 | Adding flit 5 to VC 0 at input 5 (state: idle, empty).
2 | network_0/router_level3_1 | Using precomputed lookahead routing information for VC 0 at input 5 (front: 5).
2 | network_0/router_level3_1/buf_5/vc_0 | Changing state from idle to vc_alloc.
2 | network_0/router_level3_1 | Adding flit 6 to VC 0 at input 6 (state: idle, empty).
2 | network_0/router_level3_1 | Using precomputed lookahead routing information for VC 0 at input 6 (front: 6).
2 | network_0/router_level3_1/buf_6/vc_0 | Changing state from idle to vc_alloc.
2 | network_0/router_level3_1 | Adding flit 7 to VC 0 at input 7 (state: idle, empty).
2 | network_0/router_level3_1 | Using precomputed lookahead routing information for VC 0 at input 7 (front: 7).
2 | network_0/router_level3_1/buf_7/vc_0 | Changing state from idle to vc_alloc.
2 | network_0/router_level3_1 | Beginning VC allocation for VC 0 at input 0 (front: 1).
2 | network_0/router_level3_1 |   Requesting VC 0 at output 10 (in_pri: 0, out_pri: 0).
2 | network_0/router_level3_1 |   Requesting VC 1 at output 10 (in_pri: 0, out_pri: 0).
2 | network_0/router_level3_1 |   Requesting VC 2 at output 10 (in_pri: 0, out_pri: 0).
2 | network_0/router_level3_1 |   Requesting VC 3 at output 10 (in_pri: 0, out_pri: 0).
2 | network_0/router_level3_1 | Beginning VC allocation for VC 0 at input 1 (front: 2).
2 | network_0/router_level3_1 |   Requesting VC 0 at output 15 (in_pri: 0, out_pri: 0).
2 | network_0/router_level3_1 |   Requesting VC 1 at output 15 (in_pri: 0, out_pri: 0).
2 | network_0/router_level3_1 |   Requesting VC 2 at output 15 (in_pri: 0, out_pri: 0).
2 | network_0/router_level3_1 |   Requesting VC 3 at output 15 (in_pri: 0, out_pri: 0).
2 | network_0/router_level3_1 | Beginning VC allocation for VC 0 at input 3 (front: 3).
2 | network_0/router_level3_1 |   Requesting VC 0 at output 11 (in_pri: 0, out_pri: 0).
2 | network_0/router_level3_1 |   Requesting VC 1 at output 11 (in_pri: 0, out_pri: 0).
2 | network_0/router_level3_1 |   Requesting VC 2 at output 11 (in_pri: 0, out_pri: 0).
2 | network_0/router_level3_1 |   Requesting VC 3 at output 11 (in_pri: 0, out_pri: 0).
2 | network_0/router_level3_1 | Beginning VC allocation for VC 0 at input 4 (front: 4).
2 | network_0/router_level3_1 |   Requesting VC 0 at output 13 (in_pri: 0, out_pri: 0).
2 | network_0/router_level3_1 |   Requesting VC 1 at output 13 (in_pri: 0, out_pri: 0).
2 | network_0/router_level3_1 |   Requesting VC 2 at output 13 (in_pri: 0, out_pri: 0).
2 | network_0/router_level3_1 |   Requesting VC 3 at output 13 (in_pri: 0, out_pri: 0).
2 | network_0/router_level3_1 | Beginning VC allocation for VC 0 at input 5 (front: 5).
2 | network_0/router_level3_1 |   Requesting VC 0 at output 10 (in_pri: 0, out_pri: 0).
2 | network_0/router_level3_1 |   Requesting VC 1 at output 10 (in_pri: 0, out_pri: 0).
2 | network_0/router_level3_1 |   Requesting VC 2 at output 10 (in_pri: 0, out_pri: 0).
2 | network_0/router_level3_1 |   Requesting VC 3 at output 10 (in_pri: 0, out_pri: 0).
2 | network_0/router_level3_1 | Beginning VC allocation for VC 0 at input 6 (front: 6).
2 | network_0/router_level3_1 |   Requesting VC 0 at output 8 (in_pri: 0, out_pri: 0).
2 | network_0/router_level3_1 |   Requesting VC 1 at output 8 (in_pri: 0, out_pri: 0).
2 | network_0/router_level3_1 |   Requesting VC 2 at output 8 (in_pri: 0, out_pri: 0).
2 | network_0/router_level3_1 |   Requesting VC 3 at output 8 (in_pri: 0, out_pri: 0).
2 | network_0/router_level3_1 | Beginning VC allocation for VC 0 at input 7 (front: 7).
2 | network_0/router_level3_1 |   Requesting VC 0 at output 9 (in_pri: 0, out_pri: 0).
2 | network_0/router_level3_1 |   Requesting VC 1 at output 9 (in_pri: 0, out_pri: 0).
2 | network_0/router_level3_1 |   Requesting VC 2 at output 9 (in_pri: 0, out_pri: 0).
2 | network_0/router_level3_1 |   Requesting VC 3 at output 9 (in_pri: 0, out_pri: 0).
2 | network_0/router_level3_1/vc_allocator | Input requests = [ 0 -> [ 40@0 41@0 42@0 43@0 ]  4 -> [ 60@0 61@0 62@0 63@0 ]  12 -> [ 44@0 45@0 46@0 47@0 ]  16 -> [ 52@0 53@0 54@0 55@0 ]  20 -> [ 40@0 41@0 42@0 43@0 ]  24 -> [ 32@0 33@0 34@0 35@0 ]  28 -> [ 36@0 37@0 38@0 39@0 ]  ], output requests = [ 32 -> [ 24@0 ]  33 -> [ 24@0 ]  34 -> [ 24@0 ]  35 -> [ 24@0 ]  36 -> [ 28@0 ]  37 -> [ 28@0 ]  38 -> [ 28@0 ]  39 -> [ 28@0 ]  40 -> [ 0@0 20@0 ]  41 -> [ 0@0 20@0 ]  42 -> [ 0@0 20@0 ]  43 -> [ 0@0 20@0 ]  44 -> [ 12@0 ]  45 -> [ 12@0 ]  46 -> [ 12@0 ]  47 -> [ 12@0 ]  52 -> [ 16@0 ]  53 -> [ 16@0 ]  54 -> [ 16@0 ]  55 -> [ 16@0 ]  60 -> [ 4@0 ]  61 -> [ 4@0 ]  62 -> [ 4@0 ]  63 -> [ 4@0 ]  ].
2 | network_0/router_level3_1/vc_allocator | Input grants = [ 0 -> 40  4 -> 60  12 -> 44  16 -> 52  24 -> 32  28 -> 36  ], output grants = [ 32 -> 24  36 -> 28  40 -> 0  44 -> 12  52 -> 16  60 -> 4  ].
2 | network_0/router_level3_1 | Assigning VC 0 at output 10 to VC 0 at input 0.
2 | network_0/router_level3_1 | Assigning VC 0 at output 15 to VC 0 at input 1.
2 | network_0/router_level3_1 | Assigning VC 0 at output 11 to VC 0 at input 3.
2 | network_0/router_level3_1 | Assigning VC 0 at output 13 to VC 0 at input 4.
2 | network_0/router_level3_1 | VC allocation failed for VC 0 at input 5.
2 | network_0/router_level3_1 | Assigning VC 0 at output 8 to VC 0 at input 6.
2 | network_0/router_level3_1 | Assigning VC 0 at output 9 to VC 0 at input 7.
2 | network_0/router_level3_1 | Completed VC allocation for VC 0 at input 0 (front: 1).
2 | network_0/router_level3_1 |   Acquiring assigned VC 0 at output 10.
2 | network_0/router_level3_1/buf_0/vc_0 | Changing state from vc_alloc to active.
2 | network_0/router_level3_1 | Completed VC allocation for VC 0 at input 1 (front: 2).
2 | network_0/router_level3_1 |   Acquiring assigned VC 0 at output 15.
2 | network_0/router_level3_1/buf_1/vc_0 | Changing state from vc_alloc to active.
2 | network_0/router_level3_1 | Completed VC allocation for VC 0 at input 3 (front: 3).
2 | network_0/router_level3_1 |   Acquiring assigned VC 0 at output 11.
2 | network_0/router_level3_1/buf_3/vc_0 | Changing state from vc_alloc to active.
2 | network_0/router_level3_1 | Completed VC allocation for VC 0 at input 4 (front: 4).
2 | network_0/router_level3_1 |   Acquiring assigned VC 0 at output 13.
2 | network_0/router_level3_1/buf_4/vc_0 | Changing state from vc_alloc to active.
2 | network_0/router_level3_1 | Completed VC allocation for VC 0 at input 5 (front: 5).
2 | network_0/router_level3_1 |   No output VC allocated.
2 | network_0/router_level3_1 | Completed VC allocation for VC 0 at input 6 (front: 6).
2 | network_0/router_level3_1 |   Acquiring assigned VC 0 at output 8.
2 | network_0/router_level3_1/buf_6/vc_0 | Changing state from vc_alloc to active.
2 | network_0/router_level3_1 | Completed VC allocation for VC 0 at input 7 (front: 7).
2 | network_0/router_level3_1 |   Acquiring assigned VC 0 at output 9.
2 | network_0/router_level3_1/buf_7/vc_0 | Changing state from vc_alloc to active.
2 | network_0/router_level3_2 | Adding flit 8 to VC 0 at input 2 (state: idle, empty).
2 | network_0/router_level3_2 | Using precomputed lookahead routing information for VC 0 at input 2 (front: 8).
2 | network_0/router_level3_2/buf_2/vc_0 | Changing state from idle to vc_alloc.
2 | network_0/router_level3_2 | Adding flit 9 to VC 0 at input 3 (state: idle, empty).
2 | network_0/router_level3_2 | Using precomputed lookahead routing information for VC 0 at input 3 (front: 9).
2 | network_0/router_level3_2/buf_3/vc_0 | Changing state from idle to vc_alloc.
2 | network_0/router_level3_2 | Adding flit 10 to VC 0 at input 4 (state: idle, empty).
2 | network_0/router_level3_2 | Using precomputed lookahead routing information for VC 0 at input 4 (front: 10).
2 | network_0/router_level3_2/buf_4/vc_0 | Changing state from idle to vc_alloc.
2 | network_0/router_level3_2 | Beginning VC allocation for VC 0 at input 2 (front: 8).
2 | network_0/router_level3_2 |   Requesting VC 0 at output 12 (in_pri: 0, out_pri: 0).
2 | network_0/router_level3_2 |   Requesting VC 1 at output 12 (in_pri: 0, out_pri: 0).
2 | network_0/router_level3_2 |   Requesting VC 2 at output 12 (in_pri: 0, out_pri: 0).
2 | network_0/router_level3_2 |   Requesting VC 3 at output 12 (in_pri: 0, out_pri: 0).
2 | network_0/router_level3_2 | Beginning VC allocation for VC 0 at input 3 (front: 9).
2 | network_0/router_level3_2 |   Requesting VC 0 at output 9 (in_pri: 0, out_pri: 0).
2 | network_0/router_level3_2 |   Requesting VC 1 at output 9 (in_pri: 0, out_pri: 0).
2 | network_0/router_level3_2 |   Requesting VC 2 at output 9 (in_pri: 0, out_pri: 0).
2 | network_0/router_level3_2 |   Requesting VC 3 at output 9 (in_pri: 0, out_pri: 0).
2 | network_0/router_level3_2 | Beginning VC allocation for VC 0 at input 4 (front: 10).
2 | network_0/router_level3_2 |   Requesting VC 0 at output 10 (in_pri: 0, out_pri: 0).
2 | network_0/router_level3_2 |   Requesting VC 1 at output 10 (in_pri: 0, out_pri: 0).
2 | network_0/router_level3_2 |   Requesting VC 2 at output 10 (in_pri: 0, out_pri: 0).
2 | network_0/router_level3_2 |   Requesting VC 3 at output 10 (in_pri: 0, out_pri: 0).
2 | network_0/router_level3_2/vc_allocator | Input requests = [ 8 -> [ 48@0 49@0 50@0 51@0 ]  12 -> [ 36@0 37@0 38@0 39@0 ]  16 -> [ 40@0 41@0 42@0 43@0 ]  20 -> [ 32@0 33@0 34@0 35@0 ]  28 -> [ 48@0 49@0 50@0 51@0 ]  ], output requests = [ 32 -> [ 20@0 ]  33 -> [ 20@0 ]  34 -> [ 20@0 ]  35 -> [ 20@0 ]  36 -> [ 12@0 ]  37 -> [ 12@0 ]  38 -> [ 12@0 ]  39 -> [ 12@0 ]  40 -> [ 16@0 ]  41 -> [ 16@0 ]  42 -> [ 16@0 ]  43 -> [ 16@0 ]  48 -> [ 8@0 28@0 ]  49 -> [ 8@0 28@0 ]  50 -> [ 8@0 28@0 ]  51 -> [ 8@0 28@0 ]  ].
2 | network_0/router_level3_2/vc_allocator | Input grants = [ 8 -> 48  12 -> 36  16 -> 40  20 -> 32  ], output grants = [ 32 -> 20  36 -> 12  40 -> 16  48 -> 8  ].
2 | network_0/router_level3_2 | Assigning VC 0 at output 12 to VC 0 at input 2.
2 | network_0/router_level3_2 | Assigning VC 0 at output 9 to VC 0 at input 3.
2 | network_0/router_level3_2 | Assigning VC 0 at output 10 to VC 0 at input 4.
2 | network_0/router_level3_2 | Completed VC allocation for VC 0 at input 2 (front: 8).
2 | network_0/router_level3_2 |   Acquiring assigned VC 0 at output 12.
2 | network_0/router_level3_2/buf_2/vc_0 | Changing state from vc_alloc to active.
2 | network_0/router_level3_2 | Completed VC allocation for VC 0 at input 3 (front: 9).
2 | network_0/router_level3_2 |   Acquiring assigned VC 0 at output 9.
2 | network_0/router_level3_2/buf_3/vc_0 | Changing state from vc_alloc to active.
2 | network_0/router_level3_2 | Completed VC allocation for VC 0 at input 4 (front: 10).
2 | network_0/router_level3_2 |   Acquiring assigned VC 0 at output 10.
2 | network_0/router_level3_2/buf_4/vc_0 | Changing state from vc_alloc to active.
3 | network_0/router_level3_1 | Beginning VC allocation for VC 0 at input 5 (front: 5).
3 | network_0/router_level3_1 |   VC 0 at output 10 is in use by VC 0 at input 0 (front flit: 1).
3 | network_0/router_level3_1 |   Requesting VC 1 at output 10 (in_pri: 0, out_pri: 0).
3 | network_0/router_level3_1 |   Requesting VC 2 at output 10 (in_pri: 0, out_pri: 0).
3 | network_0/router_level3_1 |   Requesting VC 3 at output 10 (in_pri: 0, out_pri: 0).
3 | network_0/router_level3_1/vc_allocator | Input requests = [ 5 -> [ 56@0 57@0 58@0 59@0 ]  17 -> [ 61@0 62@0 63@0 ]  20 -> [ 41@0 42@0 43@0 ]  21 -> [ 61@0 62@0 63@0 ]  25 -> [ 61@0 62@0 63@0 ]  ], output requests = [ 41 -> [ 20@0 ]  42 -> [ 20@0 ]  43 -> [ 20@0 ]  56 -> [ 5@0 ]  57 -> [ 5@0 ]  58 -> [ 5@0 ]  59 -> [ 5@0 ]  61 -> [ 17@0 21@0 25@0 ]  62 -> [ 17@0 21@0 25@0 ]  63 -> [ 17@0 21@0 25@0 ]  ].
3 | network_0/router_level3_1/vc_allocator | Input grants = [ 5 -> 56  17 -> 61  20 -> 41  ], output grants = [ 41 -> 20  56 -> 5  61 -> 17  ].
3 | network_0/router_level3_1 | Assigning VC 1 at output 10 to VC 0 at input 5.
3 | network_0/router_level3_1 | Beginning switch allocation for VC 0 at input 0 (front: 1).
3 | network_0/router_level3_1 |   Requesting output 10.0 (non-spec, pri: 0).
3 | network_0/router_level3_1 | Beginning switch allocation for VC 0 at input 1 (front: 2).
3 | network_0/router_level3_1 |   Requesting output 15.0 (non-spec, pri: 0).
3 | network_0/router_level3_1 | Beginning switch allocation for VC 0 at input 3 (front: 3).
3 | network_0/router_level3_1 |   Requesting output 11.0 (non-spec, pri: 0).
3 | network_0/router_level3_1 | Beginning switch allocation for VC 0 at input 4 (front: 4).
3 | network_0/router_level3_1 |   Requesting output 13.0 (non-spec, pri: 0).
3 | network_0/router_level3_1 | Beginning switch allocation for VC 0 at input 6 (front: 6).
3 | network_0/router_level3_1 |   Requesting output 8.0 (non-spec, pri: 0).
3 | network_0/router_level3_1 | Beginning switch allocation for VC 0 at input 7 (front: 7).
3 | network_0/router_level3_1 |   Requesting output 9.0 (non-spec, pri: 0).
3 | network_0/router_level3_1/sw_allocator | Input requests = [ 0 -> [ 10@0 ]  1 -> [ 15@0 ]  3 -> [ 11@0 ]  4 -> [ 13@0 ]  6 -> [ 8@0 ]  7 -> [ 9@0 ]  ], output requests = [ 8 -> [ 6@0 ]  9 -> [ 7@0 ]  10 -> [ 0@0 ]  11 -> [ 3@0 ]  13 -> [ 4@0 ]  15 -> [ 1@0 ]  ].
3 | network_0/router_level3_1/sw_allocator | Input grants = [ 0 -> 10  1 -> 15  3 -> 11  4 -> 13  6 -> 8  7 -> 9  ], output grants = [ 8 -> 6  9 -> 7  10 -> 0  11 -> 3  13 -> 4  15 -> 1  ].
3 | network_0/router_level3_1 | Assigning output 10.0 to VC 0 at input 0.0.
3 | network_0/router_level3_1 | Assigning output 15.0 to VC 0 at input 1.0.
3 | network_0/router_level3_1 | Assigning output 11.0 to VC 0 at input 3.0.
3 | network_0/router_level3_1 | Assigning output 13.0 to VC 0 at input 4.0.
3 | network_0/router_level3_1 | Assigning output 8.0 to VC 0 at input 6.0.
3 | network_0/router_level3_1 | Assigning output 9.0 to VC 0 at input 7.0.
3 | network_0/router_level3_1 | Completed VC allocation for VC 0 at input 5 (front: 5).
3 | network_0/router_level3_1 |   Acquiring assigned VC 1 at output 10.
3 | network_0/router_level3_1/buf_5/vc_0 | Changing state from vc_alloc to active.
3 | network_0/router_level3_1 | Completed switch allocation for VC 0 at input 0 (front: 1).
3 | network_0/router_level3_1 |   Scheduling switch connection from input 0.0 to output 10.0.
3 | network_0/router_level3_1 | Updating lookahead routing information for flit 1.
3 | network_0/router_level3_1 | Completed switch allocation for VC 0 at input 1 (front: 2).
3 | network_0/router_level3_1 |   Scheduling switch connection from input 1.0 to output 15.0.
3 | network_0/router_level3_1 | Updating lookahead routing information for flit 2.
3 | network_0/router_level3_1 | Completed switch allocation for VC 0 at input 3 (front: 3).
3 | network_0/router_level3_1 |   Scheduling switch connection from input 3.0 to output 11.0.
3 | network_0/router_level3_1 | Updating lookahead routing information for flit 3.
3 | network_0/router_level3_1 | Completed switch allocation for VC 0 at input 4 (front: 4).
3 | network_0/router_level3_1 |   Scheduling switch connection from input 4.0 to output 13.0.
3 | network_0/router_level3_1 | Updating lookahead routing information for flit 4.
3 | network_0/router_level3_1 | Completed switch allocation for VC 0 at input 6 (front: 6).
3 | network_0/router_level3_1 |   Scheduling switch connection from input 6.0 to output 8.0.
3 | network_0/router_level3_1 | Updating lookahead routing information for flit 6.
3 | network_0/router_level3_1 | Completed switch allocation for VC 0 at input 7 (front: 7).
3 | network_0/router_level3_1 |   Scheduling switch connection from input 7.0 to output 9.0.
3 | network_0/router_level3_1 | Updating lookahead routing information for flit 7.
3 | network_0/router_level3_2 | Beginning switch allocation for VC 0 at input 2 (front: 8).
3 | network_0/router_level3_2 |   Requesting output 12.0 (non-spec, pri: 0).
3 | network_0/router_level3_2 | Beginning switch allocation for VC 0 at input 3 (front: 9).
3 | network_0/router_level3_2 |   Requesting output 9.0 (non-spec, pri: 0).
3 | network_0/router_level3_2 | Beginning switch allocation for VC 0 at input 4 (front: 10).
3 | network_0/router_level3_2 |   Requesting output 10.0 (non-spec, pri: 0).
3 | network_0/router_level3_2/sw_allocator | Input requests = [ 2 -> [ 12@0 ]  3 -> [ 9@0 ]  4 -> [ 10@0 ]  5 -> [ 8@0 ]  ], output requests = [ 8 -> [ 5@0 ]  9 -> [ 3@0 ]  10 -> [ 4@0 ]  12 -> [ 2@0 ]  ].
3 | network_0/router_level3_2/sw_allocator | Input grants = [ 2 -> 12  3 -> 9  4 -> 10  5 -> 8  ], output grants = [ 8 -> 5  9 -> 3  10 -> 4  12 -> 2  ].
3 | network_0/router_level3_2 | Assigning output 12.0 to VC 0 at input 2.0.
3 | network_0/router_level3_2 | Assigning output 9.0 to VC 0 at input 3.0.
3 | network_0/router_level3_2 | Assigning output 10.0 to VC 0 at input 4.0.
3 | network_0/router_level3_2 | Completed switch allocation for VC 0 at input 2 (front: 8).
3 | network_0/router_level3_2 |   Scheduling switch connection from input 2.0 to output 12.0.
3 | network_0/router_level3_2 | Updating lookahead routing information for flit 8.
3 | network_0/router_level3_2 | Completed switch allocation for VC 0 at input 3 (front: 9).
3 | network_0/router_level3_2 |   Scheduling switch connection from input 3.0 to output 9.0.
3 | network_0/router_level3_2 | Updating lookahead routing information for flit 9.
3 | network_0/router_level3_2 | Completed switch allocation for VC 0 at input 4 (front: 10).
3 | network_0/router_level3_2 |   Scheduling switch connection from input 4.0 to output 10.0.
3 | network_0/router_level3_2 | Updating lookahead routing information for flit 10.
4 | network_0/router_level3_1 | Beginning switch allocation for VC 0 at input 5 (front: 5).
4 | network_0/router_level3_1 |   Requesting output 10.0 (non-spec, pri: 0).
4 | network_0/router_level3_1/sw_allocator | Input requests = [ 1 -> [ 14@0 ]  4 -> [ 15@0 ]  5 -> [ 10@0 ]  ], output requests = [ 10 -> [ 5@0 ]  14 -> [ 1@0 ]  15 -> [ 4@0 ]  ].
4 | network_0/router_level3_1/sw_allocator | Input grants = [ 1 -> 14  4 -> 15  5 -> 10  ], output grants = [ 10 -> 5  14 -> 1  15 -> 4  ].
4 | network_0/router_level3_1 | Assigning output 10.0 to VC 0 at input 5.0.
4 | network_0/router_level3_1 | Beginning crossbar traversal for flit 1 from input 0.0 to output 10.0.
4 | network_0/router_level3_1 | Beginning crossbar traversal for flit 2 from input 1.0 to output 15.0.
4 | network_0/router_level3_1 | Beginning crossbar traversal for flit 3 from input 3.0 to output 11.0.
4 | network_0/router_level3_1 | Beginning crossbar traversal for flit 4 from input 4.0 to output 13.0.
4 | network_0/router_level3_1 | Beginning crossbar traversal for flit 6 from input 6.0 to output 8.0.
4 | network_0/router_level3_1 | Beginning crossbar traversal for flit 7 from input 7.0 to output 9.0.
4 | network_0/router_level3_1 | Completed switch allocation for VC 0 at input 5 (front: 5).
4 | network_0/router_level3_1 |   Scheduling switch connection from input 5.0 to output 10.0.
4 | network_0/router_level3_1 | Updating lookahead routing information for flit 5.
4 | network_0/router_level3_1 | Completed crossbar traversal for flit 1 from input 0.0 to output 10.0.
4 | network_0/router_level3_1 | Buffering flit 1 at output 10.
4 | network_0/router_level3_1 | Completed crossbar traversal for flit 2 from input 1.0 to output 15.0.
4 | network_0/router_level3_1 | Buffering flit 2 at output 15.
4 | network_0/router_level3_1 | Completed crossbar traversal for flit 3 from input 3.0 to output 11.0.
4 | network_0/router_level3_1 | Buffering flit 3 at output 11.
4 | network_0/router_level3_1 | Completed crossbar traversal for flit 4 from input 4.0 to output 13.0.
4 | network_0/router_level3_1 | Buffering flit 4 at output 13.
4 | network_0/router_level3_1 | Completed crossbar traversal for flit 6 from input 6.0 to output 8.0.
4 | network_0/router_level3_1 | Buffering flit 6 at output 8.
4 | network_0/router_level3_1 | Completed crossbar traversal for flit 7 from input 7.0 to output 9.0.
4 | network_0/router_level3_1 | Buffering flit 7 at output 9.
4 | network_0/router_level3_2 | Beginning crossbar traversal for flit 8 from input 2.0 to output 12.0.
4 | network_0/router_level3_2 | Beginning crossbar traversal for flit 9 from input 3.0 to output 9.0.
4 | network_0/router_level3_2 | Beginning crossbar traversal for flit 10 from input 4.0 to output 10.0.
4 | network_0/router_level3_2 | Completed crossbar traversal for flit 8 from input 2.0 to output 12.0.
4 | network_0/router_level3_2 | Buffering flit 8 at output 12.
4 | network_0/router_level3_2 | Completed crossbar traversal for flit 9 from input 3.0 to output 9.0.
4 | network_0/router_level3_2 | Buffering flit 9 at output 9.
4 | network_0/router_level3_2 | Completed crossbar traversal for flit 10 from input 4.0 to output 10.0.
4 | network_0/router_level3_2 | Buffering flit 10 at output 10.
4 | network_0/router_level3_1 | Sending flit 6 to channel at output 8.
4 | network_0/router_level3_1 | Sending flit 7 to channel at output 9.
4 | network_0/router_level3_1 | Sending flit 1 to channel at output 10.
4 | network_0/router_level3_1 | Sending flit 3 to channel at output 11.
4 | network_0/router_level3_1 | Sending flit 4 to channel at output 13.
4 | network_0/router_level3_1 | Sending flit 2 to channel at output 15.
4 | network_0/router_level3_2 | Sending flit 9 to channel at output 9.
4 | network_0/router_level3_2 | Sending flit 10 to channel at output 10.
4 | network_0/router_level3_2 | Sending flit 8 to channel at output 12.
5 | network_0/network_0_fchan_20488 | Beginning channel traversal for flit 6 with delay 1.
5 | network_0/network_0_fchan_20489 | Beginning channel traversal for flit 7 with delay 1.
5 | network_0/network_0_fchan_20490 | Beginning channel traversal for flit 1 with delay 1.
5 | network_0/network_0_fchan_20491 | Beginning channel traversal for flit 3 with delay 1.
5 | network_0/network_0_fchan_20493 | Beginning channel traversal for flit 4 with delay 1.
5 | network_0/network_0_fchan_20495 | Beginning channel traversal for flit 2 with delay 1.
5 | network_0/network_0_fchan_20497 | Beginning channel traversal for flit 9 with delay 1.
5 | network_0/network_0_fchan_20498 | Beginning channel traversal for flit 10 with delay 1.
5 | network_0/network_0_fchan_20500 | Beginning channel traversal for flit 8 with delay 1.
5 | network_0/router_level3_1 | Beginning crossbar traversal for flit 5 from input 5.0 to output 10.0.
5 | network_0/router_level3_1 | Completed crossbar traversal for flit 5 from input 5.0 to output 10.0.
5 | network_0/router_level3_1 | Buffering flit 5 at output 10.
5 | network_0/network_0_fchan_20488 | Completed channel traversal for flit 6.
5 | network_0/network_0_fchan_20489 | Completed channel traversal for flit 7.
5 | network_0/network_0_fchan_20490 | Completed channel traversal for flit 1.
5 | network_0/network_0_fchan_20491 | Completed channel traversal for flit 3.
5 | network_0/network_0_fchan_20493 | Completed channel traversal for flit 4.
5 | network_0/network_0_fchan_20495 | Completed channel traversal for flit 2.
5 | network_0/network_0_fchan_20497 | Completed channel traversal for flit 9.
5 | network_0/network_0_fchan_20498 | Completed channel traversal for flit 10.
5 | network_0/network_0_fchan_20500 | Completed channel traversal for flit 8.
5 | network_0/router_level3_1 | Sending flit 5 to channel at output 10.
6 | network_0/network_0_fchan_20490 | Beginning channel traversal for flit 5 with delay 1.
6 | network_0/router_level2_0 | Received flit 6 from channel at input 1.
6 | network_0/router_level2_1 | Received flit 7 from channel at input 1.
6 | network_0/router_level2_1 | Received flit 9 from channel at input 2.
6 | network_0/router_level2_2 | Received flit 1 from channel at input 1.
6 | network_0/router_level2_2 | Received flit 10 from channel at input 2.
6 | network_0/router_level2_3 | Received flit 3 from channel at input 1.
6 | network_0/router_level2_4 | Received flit 8 from channel at input 2.
6 | network_0/router_level2_5 | Received flit 4 from channel at input 1.
6 | network_0/router_level2_7 | Received flit 2 from channel at input 1.
6 | network_0/router_level2_0 | Adding flit 6 to VC 0 at input 1 (state: idle, empty).
6 | network_0/router_level2_0 | Using precomputed lookahead routing information for VC 0 at input 1 (front: 6).
6 | network_0/router_level2_0/buf_1/vc_0 | Changing state from idle to vc_alloc.
6 | network_0/router_level2_0 | Beginning VC allocation for VC 0 at input 1 (front: 6).
6 | network_0/router_level2_0 |   Requesting VC 0 at output 10 (in_pri: 0, out_pri: 0).
6 | network_0/router_level2_0 |   Requesting VC 1 at output 10 (in_pri: 0, out_pri: 0).
6 | network_0/router_level2_0 |   Requesting VC 2 at output 10 (in_pri: 0, out_pri: 0).
6 | network_0/router_level2_0 |   Requesting VC 3 at output 10 (in_pri: 0, out_pri: 0).
6 | network_0/router_level2_0/vc_allocator | Input requests = [ 4 -> [ 40@0 41@0 42@0 43@0 ]  8 -> [ 56@0 57@0 58@0 59@0 ]  20 -> [ 40@0 41@0 42@0 43@0 ]  28 -> [ 56@0 57@0 58@0 59@0 ]  ], output requests = [ 40 -> [ 4@0 20@0 ]  41 -> [ 4@0 20@0 ]  42 -> [ 4@0 20@0 ]  43 -> [ 4@0 20@0 ]  56 -> [ 8@0 28@0 ]  57 -> [ 8@0 28@0 ]  58 -> [ 8@0 28@0 ]  59 -> [ 8@0 28@0 ]  ].
6 | network_0/router_level2_0/vc_allocator | Input grants = [ 4 -> 40  8 -> 56  ], output grants = [ 40 -> 4  56 -> 8  ].
6 | network_0/router_level2_0 | Assigning VC 0 at output 10 to VC 0 at input 1.
6 | network_0/router_level2_0 | Completed VC allocation for VC 0 at input 1 (front: 6).
6 | network_0/router_level2_0 |   Acquiring assigned VC 0 at output 10.
6 | network_0/router_level2_0/buf_1/vc_0 | Changing state from vc_alloc to active.
6 | network_0/router_level2_1 | Adding flit 7 to VC 0 at input 1 (state: idle, empty).
6 | network_0/router_level2_1 | Using precomputed lookahead routing information for VC 0 at input 1 (front: 7).
6 | network_0/router_level2_1/buf_1/vc_0 | Changing state from idle to vc_alloc.
6 | network_0/router_level2_1 | Adding flit 9 to VC 0 at input 2 (state: idle, empty).
6 | network_0/router_level2_1 | Using precomputed lookahead routing information for VC 0 at input 2 (front: 9).
6 | network_0/router_level2_1/buf_2/vc_0 | Changing state from idle to vc_alloc.
6 | network_0/router_level2_1 | Beginning VC allocation for VC 0 at input 1 (front: 7).
6 | network_0/router_level2_1 |   Requesting VC 0 at output 10 (in_pri: 0, out_pri: 0).
6 | network_0/router_level2_1 |   Requesting VC 1 at output 10 (in_pri: 0, out_pri: 0).
6 | network_0/router_level2_1 |   Requesting VC 2 at output 10 (in_pri: 0, out_pri: 0).
6 | network_0/router_level2_1 |   Requesting VC 3 at output 10 (in_pri: 0, out_pri: 0).
6 | network_0/router_level2_1 | Beginning VC allocation for VC 0 at input 2 (front: 9).
6 | network_0/router_level2_1 |   Requesting VC 0 at output 8 (in_pri: 0, out_pri: 0).
6 | network_0/router_level2_1 |   Requesting VC 1 at output 8 (in_pri: 0, out_pri: 0).
6 | network_0/router_level2_1 |   Requesting VC 2 at output 8 (in_pri: 0, out_pri: 0).
6 | network_0/router_level2_1 |   Requesting VC 3 at output 8 (in_pri: 0, out_pri: 0).
6 | network_0/router_level2_1/vc_allocator | Input requests = [ 4 -> [ 40@0 41@0 42@0 43@0 ]  8 -> [ 32@0 33@0 34@0 35@0 ]  20 -> [ 44@0 45@0 46@0 47@0 ]  24 -> [ 36@0 37@0 38@0 39@0 ]  28 -> [ 48@0 49@0 50@0 51@0 ]  ], output requests = [ 32 -> [ 8@0 ]  33 -> [ 8@0 ]  34 -> [ 8@0 ]  35 -> [ 8@0 ]  36 -> [ 24@0 ]  37 -> [ 24@0 ]  38 -> [ 24@0 ]  39 -> [ 24@0 ]  40 -> [ 4@0 ]  41 -> [ 4@0 ]  42 -> [ 4@0 ]  43 -> [ 4@0 ]  44 -> [ 20@0 ]  45 -> [ 20@0 ]  46 -> [ 20@0 ]  47 -> [ 20@0 ]  48 -> [ 28@0 ]  49 -> [ 28@0 ]  50 -> [ 28@0 ]  51 -> [ 28@0 ]  ].
6 | network_0/router_level2_1/vc_allocator | Input grants = [ 4 -> 40  8 -> 32  20 -> 44  24 -> 36  28 -> 48  ], output grants = [ 32 -> 8  36 -> 24  40 -> 4  44 -> 20  48 -> 28  ].
6 | network_0/router_level2_1 | Assigning VC 0 at output 10 to VC 0 at input 1.
6 | network_0/router_level2_1 | Assigning VC 0 at output 8 to VC 0 at input 2.
6 | network_0/router_level2_1 | Completed VC allocation for VC 0 at input 1 (front: 7).
6 | network_0/router_level2_1 |   Acquiring assigned VC 0 at output 10.
6 | network_0/router_level2_1/buf_1/vc_0 | Changing state from vc_alloc to active.
6 | network_0/router_level2_1 | Completed VC allocation for VC 0 at input 2 (front: 9).
6 | network_0/router_level2_1 |   Acquiring assigned VC 0 at output 8.
6 | network_0/router_level2_1/buf_2/vc_0 | Changing state from vc_alloc to active.
6 | network_0/router_level2_2 | Adding flit 1 to VC 0 at input 1 (state: idle, empty).
6 | network_0/router_level2_2 | Using precomputed lookahead routing information for VC 0 at input 1 (front: 1).
6 | network_0/router_level2_2/buf_1/vc_0 | Changing state from idle to vc_alloc.
6 | network_0/router_level2_2 | Adding flit 10 to VC 0 at input 2 (state: idle, empty).
6 | network_0/router_level2_2 | Using precomputed lookahead routing information for VC 0 at input 2 (front: 10).
6 | network_0/router_level2_2/buf_2/vc_0 | Changing state from idle to vc_alloc.
6 | network_0/router_level2_2 | Beginning VC allocation for VC 0 at input 1 (front: 1).
6 | network_0/router_level2_2 |   Requesting VC 0 at output 15 (in_pri: 0, out_pri: 0).
6 | network_0/router_level2_2 |   Requesting VC 1 at output 15 (in_pri: 0, out_pri: 0).
6 | network_0/router_level2_2 |   Requesting VC 2 at output 15 (in_pri: 0, out_pri: 0).
6 | network_0/router_level2_2 |   Requesting VC 3 at output 15 (in_pri: 0, out_pri: 0).
6 | network_0/router_level2_2 | Beginning VC allocation for VC 0 at input 2 (front: 10).
6 | network_0/router_level2_2 |   Requesting VC 0 at output 8 (in_pri: 0, out_pri: 0).
6 | network_0/router_level2_2 |   Requesting VC 1 at output 8 (in_pri: 0, out_pri: 0).
6 | network_0/router_level2_2 |   Requesting VC 2 at output 8 (in_pri: 0, out_pri: 0).
6 | network_0/router_level2_2 |   Requesting VC 3 at output 8 (in_pri: 0, out_pri: 0).
6 | network_0/router_level2_2/vc_allocator | Input requests = [ 4 -> [ 60@0 61@0 62@0 63@0 ]  8 -> [ 32@0 33@0 34@0 35@0 ]  16 -> [ 48@0 49@0 50@0 51@0 ]  ], output requests = [ 32 -> [ 8@0 ]  33 -> [ 8@0 ]  34 -> [ 8@0 ]  35 -> [ 8@0 ]  48 -> [ 16@0 ]  49 -> [ 16@0 ]  50 -> [ 16@0 ]  51 -> [ 16@0 ]  60 -> [ 4@0 ]  61 -> [ 4@0 ]  62 -> [ 4@0 ]  63 -> [ 4@0 ]  ].
6 | network_0/router_level2_2/vc_allocator | Input grants = [ 4 -> 60  8 -> 32  16 -> 48  ], output grants = [ 32 -> 8  48 -> 16  60 -> 4  ].
6 | network_0/router_level2_2 | Assigning VC 0 at output 15 to VC 0 at input 1.
6 | network_0/router_level2_2 | Assigning VC 0 at output 8 to VC 0 at input 2.
6 | network_0/router_level2_2 | Completed VC allocation for VC 0 at input 1 (front: 1).
6 | network_0/router_level2_2 |   Acquiring assigned VC 0 at output 15.
6 | network_0/router_level2_2/buf_1/vc_0 | Changing state from vc_alloc to active.
6 | network_0/router_level2_2 | Completed VC allocation for VC 0 at input 2 (front: 10).
6 | network_0/router_level2_2 |   Acquiring assigned VC 0 at output 8.
6 | network_0/router_level2_2/buf_2/vc_0 | Changing state from vc_alloc to active.
6 | network_0/router_level2_3 | Adding flit 3 to VC 0 at input 1 (state: idle, empty).
6 | network_0/router_level2_3 | Using precomputed lookahead routing information for VC 0 at input 1 (front: 3).
6 | network_0/router_level2_3/buf_1/vc_0 | Changing state from idle to vc_alloc.
6 | network_0/router_level2_3 | Beginning VC allocation for VC 0 at input 1 (front: 3).
6 | network_0/router_level2_3 |   Requesting VC 0 at output 10 (in_pri: 0, out_pri: 0).
6 | network_0/router_level2_3 |   Requesting VC 1 at output 10 (in_pri: 0, out_pri: 0).
6 | network_0/router_level2_3 |   Requesting VC 2 at output 10 (in_pri: 0, out_pri: 0).
6 | network_0/router_level2_3 |   Requesting VC 3 at output 10 (in_pri: 0, out_pri: 0).
6 | network_0/router_level2_3/vc_allocator | Input requests = [ 4 -> [ 40@0 41@0 42@0 43@0 ]  ], output requests = [ 40 -> [ 4@0 ]  41 -> [ 4@0 ]  42 -> [ 4@0 ]  43 -> [ 4@0 ]  ].
6 | network_0/router_level2_3/vc_allocator | Input grants = [ 4 -> 40  ], output grants = [ 40 -> 4  ].
6 | network_0/router_level2_3 | Assigning VC 0 at output 10 to VC 0 at input 1.
6 | network_0/router_level2_3 | Completed VC allocation for VC 0 at input 1 (front: 3).
6 | network_0/router_level2_3 |   Acquiring assigned VC 0 at output 10.
6 | network_0/router_level2_3/buf_1/vc_0 | Changing state from vc_alloc to active.
6 | network_0/router_level2_4 | Adding flit 8 to VC 0 at input 2 (state: idle, empty).
6 | network_0/router_level2_4 | Using precomputed lookahead routing information for VC 0 at input 2 (front: 8).
6 | network_0/router_level2_4/buf_2/vc_0 | Changing state from idle to vc_alloc.
6 | network_0/router_level2_4 | Beginning VC allocation for VC 0 at input 2 (front: 8).
6 | network_0/router_level2_4 |   Requesting VC 0 at output 15 (in_pri: 0, out_pri: 0).
6 | network_0/router_level2_4 |   Requesting VC 1 at output 15 (in_pri: 0, out_pri: 0).
6 | network_0/router_level2_4 |   Requesting VC 2 at output 15 (in_pri: 0, out_pri: 0).
6 | network_0/router_level2_4 |   Requesting VC 3 at output 15 (in_pri: 0, out_pri: 0).
6 | network_0/router_level2_4/vc_allocator | Input requests = [ 8 -> [ 60@0 61@0 62@0 63@0 ]  12 -> [ 36@0 37@0 38@0 39@0 ]  24 -> [ 36@0 37@0 38@0 39@0 ]  ], output requests = [ 36 -> [ 12@0 24@0 ]  37 -> [ 12@0 24@0 ]  38 -> [ 12@0 24@0 ]  39 -> [ 12@0 24@0 ]  60 -> [ 8@0 ]  61 -> [ 8@0 ]  62 -> [ 8@0 ]  63 -> [ 8@0 ]  ].
6 | network_0/router_level2_4/vc_allocator | Input grants = [ 8 -> 60  12 -> 36  ], output grants = [ 36 -> 12  60 -> 8  ].
6 | network_0/router_level2_4 | Assigning VC 0 at output 15 to VC 0 at input 2.
6 | network_0/router_level2_4 | Completed VC allocation for VC 0 at input 2 (front: 8).
6 | network_0/router_level2_4 |   Acquiring assigned VC 0 at output 15.
6 | network_0/router_level2_4/buf_2/vc_0 | Changing state from vc_alloc to active.
6 | network_0/router_level2_5 | Adding flit 4 to VC 0 at input 1 (state: idle, empty).
6 | network_0/router_level2_5 | Using precomputed lookahead routing information for VC 0 at input 1 (front: 4).
6 | network_0/router_level2_5/buf_1/vc_0 | Changing state from idle to vc_alloc.
6 | network_0/router_level2_5 | Beginning VC allocation for VC 0 at input 1 (front: 4).
6 | network_0/router_level2_5 |   Requesting VC 0 at output 15 (in_pri: 0, out_pri: 0).
6 | network_0/router_level2_5 |   Requesting VC 1 at output 15 (in_pri: 0, out_pri: 0).
6 | network_0/router_level2_5 |   Requesting VC 2 at output 15 (in_pri: 0, out_pri: 0).
6 | network_0/router_level2_5 |   Requesting VC 3 at output 15 (in_pri: 0, out_pri: 0).
6 | network_0/router_level2_5/vc_allocator | Input requests = [ 0 -> [ 52@0 53@0 54@0 55@0 ]  4 -> [ 60@0 61@0 62@0 63@0 ]  ], output requests = [ 52 -> [ 0@0 ]  53 -> [ 0@0 ]  54 -> [ 0@0 ]  55 -> [ 0@0 ]  60 -> [ 4@0 ]  61 -> [ 4@0 ]  62 -> [ 4@0 ]  63 -> [ 4@0 ]  ].
6 | network_0/router_level2_5/vc_allocator | Input grants = [ 0 -> 52  4 -> 60  ], output grants = [ 52 -> 0  60 -> 4  ].
6 | network_0/router_level2_5 | Assigning VC 0 at output 15 to VC 0 at input 1.
6 | network_0/router_level2_5 | Completed VC allocation for VC 0 at input 1 (front: 4).
6 | network_0/router_level2_5 |   Acquiring assigned VC 0 at output 15.
6 | network_0/router_level2_5/buf_1/vc_0 | Changing state from vc_alloc to active.
6 | network_0/router_level2_7 | Adding flit 2 to VC 0 at input 1 (state: idle, empty).
6 | network_0/router_level2_7 | Using precomputed lookahead routing information for VC 0 at input 1 (front: 2).
6 | network_0/router_level2_7/buf_1/vc_0 | Changing state from idle to vc_alloc.
6 | network_0/router_level2_7 | Beginning VC allocation for VC 0 at input 1 (front: 2).
6 | network_0/router_level2_7 |   Requesting VC 0 at output 10 (in_pri: 0, out_pri: 0).
6 | network_0/router_level2_7 |   Requesting VC 1 at output 10 (in_pri: 0, out_pri: 0).
6 | network_0/router_level2_7 |   Requesting VC 2 at output 10 (in_pri: 0, out_pri: 0).
6 | network_0/router_level2_7 |   Requesting VC 3 at output 10 (in_pri: 0, out_pri: 0).
6 | network_0/router_level2_7/vc_allocator | Input requests = [ 4 -> [ 40@0 41@0 42@0 43@0 ]  12 -> [ 36@0 37@0 38@0 39@0 ]  20 -> [ 36@0 37@0 38@0 39@0 ]  ], output requests = [ 36 -> [ 12@0 20@0 ]  37 -> [ 12@0 20@0 ]  38 -> [ 12@0 20@0 ]  39 -> [ 12@0 20@0 ]  40 -> [ 4@0 ]  41 -> [ 4@0 ]  42 -> [ 4@0 ]  43 -> [ 4@0 ]  ].
6 | network_0/router_level2_7/vc_allocator | Input grants = [ 4 -> 40  12 -> 36  ], output grants = [ 36 -> 12  40 -> 4  ].
6 | network_0/router_level2_7 | Assigning VC 0 at output 10 to VC 0 at input 1.
6 | network_0/router_level2_7 | Completed VC allocation for VC 0 at input 1 (front: 2).
6 | network_0/router_level2_7 |   Acquiring assigned VC 0 at output 10.
6 | network_0/router_level2_7/buf_1/vc_0 | Changing state from vc_alloc to active.
6 | network_0/network_0_fchan_20490 | Completed channel traversal for flit 5.
7 | network_0/router_level2_2 | Received flit 5 from channel at input 1.
7 | network_0/router_level2_0 | Beginning switch allocation for VC 0 at input 1 (front: 6).
7 | network_0/router_level2_0 |   Requesting output 10.0 (non-spec, pri: 0).
7 | network_0/router_level2_0/sw_allocator | Input requests = [ 1 -> [ 10@0 ]  2 -> [ 14@0 ]  ], output requests = [ 10 -> [ 1@0 ]  14 -> [ 2@0 ]  ].
7 | network_0/router_level2_0/sw_allocator | Input grants = [ 1 -> 10  2 -> 14  ], output grants = [ 10 -> 1  14 -> 2  ].
7 | network_0/router_level2_0 | Assigning output 10.0 to VC 0 at input 1.0.
7 | network_0/router_level2_0 | Completed switch allocation for VC 0 at input 1 (front: 6).
7 | network_0/router_level2_0 |   Scheduling switch connection from input 1.0 to output 10.0.
7 | network_0/router_level2_0 | Updating lookahead routing information for flit 6.
7 | network_0/router_level2_1 | Beginning switch allocation for VC 0 at input 1 (front: 7).
7 | network_0/router_level2_1 |   Requesting output 10.0 (non-spec, pri: 0).
7 | network_0/router_level2_1 | Beginning switch allocation for VC 0 at input 2 (front: 9).
7 | network_0/router_level2_1 |   Requesting output 8.0 (non-spec, pri: 0).
7 | network_0/router_level2_1/sw_allocator | Input requests = [ 1 -> [ 10@0 ]  2 -> [ 8@0 ]  5 -> [ 11@0 ]  6 -> [ 9@0 ]  7 -> [ 12@0 ]  ], output requests = [ 8 -> [ 2@0 ]  9 -> [ 6@0 ]  10 -> [ 1@0 ]  11 -> [ 5@0 ]  12 -> [ 7@0 ]  ].
7 | network_0/router_level2_1/sw_allocator | Input grants = [ 1 -> 10  2 -> 8  5 -> 11  6 -> 9  7 -> 12  ], output grants = [ 8 -> 2  9 -> 6  10 -> 1  11 -> 5  12 -> 7  ].
7 | network_0/router_level2_1 | Assigning output 10.0 to VC 0 at input 1.0.
7 | network_0/router_level2_1 | Assigning output 8.0 to VC 0 at input 2.0.
7 | network_0/router_level2_1 | Completed switch allocation for VC 0 at input 1 (front: 7).
7 | network_0/router_level2_1 |   Scheduling switch connection from input 1.0 to output 10.0.
7 | network_0/router_level2_1 | Updating lookahead routing information for flit 7.
7 | network_0/router_level2_1 | Completed switch allocation for VC 0 at input 2 (front: 9).
7 | network_0/router_level2_1 |   Scheduling switch connection from input 2.0 to output 8.0.
7 | network_0/router_level2_1 | Updating lookahead routing information for flit 9.
7 | network_0/router_level2_2 | Adding flit 5 to VC 1 at input 1 (state: idle, empty).
7 | network_0/router_level2_2 | Using precomputed lookahead routing information for VC 1 at input 1 (front: 5).
7 | network_0/router_level2_2/buf_1/vc_1 | Changing state from idle to vc_alloc.
7 | network_0/router_level2_2 | Beginning VC allocation for VC 1 at input 1 (front: 5).
7 | network_0/router_level2_2 |   Requesting VC 0 at output 9 (in_pri: 0, out_pri: 0).
7 | network_0/router_level2_2 |   Requesting VC 1 at output 9 (in_pri: 0, out_pri: 0).
7 | network_0/router_level2_2 |   Requesting VC 2 at output 9 (in_pri: 0, out_pri: 0).
7 | network_0/router_level2_2 |   Requesting VC 3 at output 9 (in_pri: 0, out_pri: 0).
7 | network_0/router_level2_2/vc_allocator | Input requests = [ 0 -> [ 44@0 45@0 46@0 47@0 ]  5 -> [ 36@0 37@0 38@0 39@0 ]  9 -> [ 44@0 45@0 46@0 47@0 ]  20 -> [ 44@0 45@0 46@0 47@0 ]  ], output requests = [ 36 -> [ 5@0 ]  37 -> [ 5@0 ]  38 -> [ 5@0 ]  39 -> [ 5@0 ]  44 -> [ 0@0 9@0 20@0 ]  45 -> [ 0@0 9@0 20@0 ]  46 -> [ 0@0 9@0 20@0 ]  47 -> [ 0@0 9@0 20@0 ]  ].
7 | network_0/router_level2_2/vc_allocator | Input grants = [ 0 -> 44  5 -> 36  ], output grants = [ 36 -> 5  44 -> 0  ].
7 | network_0/router_level2_2 | Assigning VC 0 at output 9 to VC 1 at input 1.
7 | network_0/router_level2_2 | Beginning switch allocation for VC 0 at input 1 (front: 1).
7 | network_0/router_level2_2 |   Requesting output 15.0 (non-spec, pri: 0).
7 | network_0/router_level2_2 | Beginning switch allocation for VC 0 at input 2 (front: 10).
7 | network_0/router_level2_2 |   Requesting output 8.0 (non-spec, pri: 0).
7 | network_0/router_level2_2/sw_allocator | Input requests = [ 1 -> [ 15@0 ]  2 -> [ 8@0 ]  4 -> [ 12@0 ]  ], output requests = [ 8 -> [ 2@0 ]  12 -> [ 4@0 ]  15 -> [ 1@0 ]  ].
7 | network_0/router_level2_2/sw_allocator | Input grants = [ 1 -> 15  2 -> 8  4 -> 12  ], output grants = [ 8 -> 2  12 -> 4  15 -> 1  ].
7 | network_0/router_level2_2 | Assigning output 15.0 to VC 0 at input 1.0.
7 | network_0/router_level2_2 | Assigning output 8.0 to VC 0 at input 2.0.
7 | network_0/router_level2_2 | Completed VC allocation for VC 1 at input 1 (front: 5).
7 | network_0/router_level2_2 |   Acquiring assigned VC 0 at output 9.
7 | network_0/router_level2_2/buf_1/vc_1 | Changing state from vc_alloc to active.
7 | network_0/router_level2_2 | Completed switch allocation for VC 0 at input 1 (front: 1).
7 | network_0/router_level2_2 |   Scheduling switch connection from input 1.0 to output 15.0.
7 | network_0/router_level2_2 | Updating lookahead routing information for flit 1.
7 | network_0/router_level2_2 | Completed switch allocation for VC 0 at input 2 (front: 10).
7 | network_0/router_level2_2 |   Scheduling switch connection from input 2.0 to output 8.0.
7 | network_0/router_level2_2 | Updating lookahead routing information for flit 10.
7 | network_0/router_level2_3 | Beginning switch allocation for VC 0 at input 1 (front: 3).
7 | network_0/router_level2_3 |   Requesting output 10.0 (non-spec, pri: 0).
7 | network_0/router_level2_3/sw_allocator | Input requests = [ 1 -> [ 10@0 ]  ], output requests = [ 10 -> [ 1@0 ]  ].
7 | network_0/router_level2_3/sw_allocator | Input grants = [ 1 -> 10  ], output grants = [ 10 -> 1  ].
7 | network_0/router_level2_3 | Assigning output 10.0 to VC 0 at input 1.0.
7 | network_0/router_level2_3 | Completed switch allocation for VC 0 at input 1 (front: 3).
7 | network_0/router_level2_3 |   Scheduling switch connection from input 1.0 to output 10.0.
7 | network_0/router_level2_3 | Updating lookahead routing information for flit 3.
7 | network_0/router_level2_4 | Beginning switch allocation for VC 0 at input 2 (front: 8).
7 | network_0/router_level2_4 |   Requesting output 15.0 (non-spec, pri: 0).
7 | network_0/router_level2_4/sw_allocator | Input requests = [ 2 -> [ 15@0 ]  3 -> [ 9@0 ]  ], output requests = [ 9 -> [ 3@0 ]  15 -> [ 2@0 ]  ].
7 | network_0/router_level2_4/sw_allocator | Input grants = [ 2 -> 15  3 -> 9  ], output grants = [ 9 -> 3  15 -> 2  ].
7 | network_0/router_level2_4 | Assigning output 15.0 to VC 0 at input 2.0.
7 | network_0/router_level2_4 | Completed switch allocation for VC 0 at input 2 (front: 8).
7 | network_0/router_level2_4 |   Scheduling switch connection from input 2.0 to output 15.0.
7 | network_0/router_level2_4 | Updating lookahead routing information for flit 8.
7 | network_0/router_level2_5 | Beginning switch allocation for VC 0 at input 1 (front: 4).
7 | network_0/router_level2_5 |   Requesting output 15.0 (non-spec, pri: 0).
7 | network_0/router_level2_5/sw_allocator | Input requests = [ 0 -> [ 13@0 ]  1 -> [ 15@0 ]  ], output requests = [ 13 -> [ 0@0 ]  15 -> [ 1@0 ]  ].
7 | network_0/router_level2_5/sw_allocator | Input grants = [ 0 -> 13  1 -> 15  ], output grants = [ 13 -> 0  15 -> 1  ].
7 | network_0/router_level2_5 | Assigning output 15.0 to VC 0 at input 1.0.
7 | network_0/router_level2_5 | Completed switch allocation for VC 0 at input 1 (front: 4).
7 | network_0/router_level2_5 |   Scheduling switch connection from input 1.0 to output 15.0.
7 | network_0/router_level2_5 | Updating lookahead routing information for flit 4.
7 | network_0/router_level2_7 | Beginning switch allocation for VC 0 at input 1 (front: 2).
7 | network_0/router_level2_7 |   Requesting output 10.0 (non-spec, pri: 0).
7 | network_0/router_level2_7/sw_allocator | Input requests = [ 1 -> [ 10@0 ]  3 -> [ 9@0 ]  ], output requests = [ 9 -> [ 3@0 ]  10 -> [ 1@0 ]  ].
7 | network_0/router_level2_7/sw_allocator | Input grants = [ 1 -> 10  3 -> 9  ], output grants = [ 9 -> 3  10 -> 1  ].
7 | network_0/router_level2_7 | Assigning output 10.0 to VC 0 at input 1.0.
7 | network_0/router_level2_7 | Completed switch allocation for VC 0 at input 1 (front: 2).
7 | network_0/router_level2_7 |   Scheduling switch connection from input 1.0 to output 10.0.
7 | network_0/router_level2_7 | Updating lookahead routing information for flit 2.
8 | network_0/router_level2_0 | Beginning crossbar traversal for flit 6 from input 1.0 to output 10.0.
8 | network_0/router_level2_0 | Completed crossbar traversal for flit 6 from input 1.0 to output 10.0.
8 | network_0/router_level2_0 | Buffering flit 6 at output 10.
8 | network_0/router_level2_1 | Beginning crossbar traversal for flit 7 from input 1.0 to output 10.0.
8 | network_0/router_level2_1 | Beginning crossbar traversal for flit 9 from input 2.0 to output 8.0.
8 | network_0/router_level2_1 | Completed crossbar traversal for flit 7 from input 1.0 to output 10.0.
8 | network_0/router_level2_1 | Buffering flit 7 at output 10.
8 | network_0/router_level2_1 | Completed crossbar traversal for flit 9 from input 2.0 to output 8.0.
8 | network_0/router_level2_1 | Buffering flit 9 at output 8.
8 | network_0/router_level2_2 | Beginning switch allocation for VC 1 at input 1 (front: 5).
8 | network_0/router_level2_2 |   Requesting output 9.0 (non-spec, pri: 0).
8 | network_0/router_level2_2/sw_allocator | Input requests = [ 0 -> [ 11@0 ]  1 -> [ 9@0 ]  ], output requests = [ 9 -> [ 1@0 ]  11 -> [ 0@0 ]  ].
8 | network_0/router_level2_2/sw_allocator | Input grants = [ 0 -> 11  1 -> 9  ], output grants = [ 9 -> 1  11 -> 0  ].
8 | network_0/router_level2_2 | Assigning output 9.0 to VC 1 at input 1.0.
8 | network_0/router_level2_2 | Beginning crossbar traversal for flit 1 from input 1.0 to output 15.0.
8 | network_0/router_level2_2 | Beginning crossbar traversal for flit 10 from input 2.0 to output 8.0.
8 | network_0/router_level2_2 | Completed switch allocation for VC 1 at input 1 (front: 5).
8 | network_0/router_level2_2 |   Scheduling switch connection from input 1.0 to output 9.0.
8 | network_0/router_level2_2 | Updating lookahead routing information for flit 5.
8 | network_0/router_level2_2 | Completed crossbar traversal for flit 1 from input 1.0 to output 15.0.
8 | network_0/router_level2_2 | Buffering flit 1 at output 15.
8 | network_0/router_level2_2 | Completed crossbar traversal for flit 10 from input 2.0 to output 8.0.
8 | network_0/router_level2_2 | Buffering flit 10 at output 8.
8 | network_0/router_level2_3 | Beginning crossbar traversal for flit 3 from input 1.0 to output 10.0.
8 | network_0/router_level2_3 | Completed crossbar traversal for flit 3 from input 1.0 to output 10.0.
8 | network_0/router_level2_3 | Buffering flit 3 at output 10.
8 | network_0/router_level2_4 | Beginning crossbar traversal for flit 8 from input 2.0 to output 15.0.
8 | network_0/router_level2_4 | Completed crossbar traversal for flit 8 from input 2.0 to output 15.0.
8 | network_0/router_level2_4 | Buffering flit 8 at output 15.
8 | network_0/router_level2_5 | Beginning crossbar traversal for flit 4 from input 1.0 to output 15.0.
8 | network_0/router_level2_5 | Completed crossbar traversal for flit 4 from input 1.0 to output 15.0.
8 | network_0/router_level2_5 | Buffering flit 4 at output 15.
8 | network_0/router_level2_7 | Beginning crossbar traversal for flit 2 from input 1.0 to output 10.0.
8 | network_0/router_level2_7 | Completed crossbar traversal for flit 2 from input 1.0 to output 10.0.
8 | network_0/router_level2_7 | Buffering flit 2 at output 10.
8 | network_0/router_level2_0 | Sending flit 6 to channel at output 10.
8 | network_0/router_level2_1 | Sending flit 9 to channel at output 8.
8 | network_0/router_level2_1 | Sending flit 7 to channel at output 10.
8 | network_0/router_level2_2 | Sending flit 10 to channel at output 8.
8 | network_0/router_level2_2 | Sending flit 1 to channel at output 15.
8 | network_0/router_level2_3 | Sending flit 3 to channel at output 10.
8 | network_0/router_level2_4 | Sending flit 8 to channel at output 15.
8 | network_0/router_level2_5 | Sending flit 4 to channel at output 15.
8 | network_0/router_level2_7 | Sending flit 2 to channel at output 10.
9 | network_0/network_0_fchan_12290 | Beginning channel traversal for flit 6 with delay 1.
9 | network_0/network_0_fchan_12296 | Beginning channel traversal for flit 9 with delay 1.
9 | network_0/network_0_fchan_12298 | Beginning channel traversal for flit 7 with delay 1.
9 | network_0/network_0_fchan_12304 | Beginning channel traversal for flit 10 with delay 1.
9 | network_0/network_0_fchan_12311 | Beginning channel traversal for flit 1 with delay 1.
9 | network_0/network_0_fchan_12314 | Beginning channel traversal for flit 3 with delay 1.
9 | network_0/network_0_fchan_12327 | Beginning channel traversal for flit 8 with delay 1.
9 | network_0/network_0_fchan_12335 | Beginning channel traversal for flit 4 with delay 1.
9 | network_0/network_0_fchan_12346 | Beginning channel traversal for flit 2 with delay 1.
9 | network_0/router_level2_2 | Beginning crossbar traversal for flit 5 from input 1.0 to output 9.0.
9 | network_0/router_level2_2 | Completed crossbar traversal for flit 5 from input 1.0 to output 9.0.
9 | network_0/router_level2_2 | Buffering flit 5 at output 9.
9 | network_0/network_0_fchan_12290 | Completed channel traversal for flit 6.
9 | network_0/network_0_fchan_12296 | Completed channel traversal for flit 9.
9 | network_0/network_0_fchan_12298 | Completed channel traversal for flit 7.
9 | network_0/network_0_fchan_12304 | Completed channel traversal for flit 10.
9 | network_0/network_0_fchan_12311 | Completed channel traversal for flit 1.
9 | network_0/network_0_fchan_12314 | Completed channel traversal for flit 3.
9 | network_0/network_0_fchan_12327 | Completed channel traversal for flit 8.
9 | network_0/network_0_fchan_12335 | Completed channel traversal for flit 4.
9 | network_0/network_0_fchan_12346 | Completed channel traversal for flit 2.
9 | network_0/router_level2_2 | Sending flit 5 to channel at output 9.
10 | network_0/network_0_fchan_12305 | Beginning channel traversal for flit 5 with delay 1.
10 | network_0/router_level1_1 | Received flit 9 from channel at input 0.
10 | network_0/router_level1_2 | Received flit 10 from channel at input 0.
10 | network_0/router_level1_16 | Received flit 6 from channel at input 0.
10 | network_0/router_level1_17 | Received flit 7 from channel at input 0.
10 | network_0/router_level1_19 | Received flit 3 from channel at input 0.
10 | network_0/router_level1_23 | Received flit 2 from channel at input 0.
10 | network_0/router_level1_58 | Received flit 1 from channel at input 0.
10 | network_0/router_level1_60 | Received flit 8 from channel at input 0.
10 | network_0/router_level1_61 | Received flit 4 from channel at input 0.
10 | network_0/router_level1_1 | Adding flit 9 to VC 0 at input 0 (state: idle, empty).
10 | network_0/router_level1_1 | Using precomputed lookahead routing information for VC 0 at input 0 (front: 9).
10 | network_0/router_level1_1/buf_0/vc_0 | Changing state from idle to vc_alloc.
10 | network_0/router_level1_1 | Beginning VC allocation for VC 0 at input 0 (front: 9).
10 | network_0/router_level1_1 |   Requesting VC 0 at output 9 (in_pri: 0, out_pri: 0).
10 | network_0/router_level1_1 |   Requesting VC 1 at output 9 (in_pri: 0, out_pri: 0).
10 | network_0/router_level1_1 |   Requesting VC 2 at output 9 (in_pri: 0, out_pri: 0).
10 | network_0/router_level1_1 |   Requesting VC 3 at output 9 (in_pri: 0, out_pri: 0).
10 | network_0/router_level1_1/vc_allocator | Input requests = [ 0 -> [ 36@0 37@0 38@0 39@0 ]  20 -> [ 32@0 33@0 34@0 35@0 ]  24 -> [ 32@0 33@0 34@0 35@0 ]  ], output requests = [ 32 -> [ 20@0 24@0 ]  33 -> [ 20@0 24@0 ]  34 -> [ 20@0 24@0 ]  35 -> [ 20@0 24@0 ]  36 -> [ 0@0 ]  37 -> [ 0@0 ]  38 -> [ 0@0 ]  39 -> [ 0@0 ]  ].
10 | network_0/router_level1_1/vc_allocator | Input grants = [ 0 -> 36  20 -> 32  ], output grants = [ 32 -> 20  36 -> 0  ].
10 | network_0/router_level1_1 | Assigning VC 0 at output 9 to VC 0 at input 0.
10 | network_0/router_level1_1 | Completed VC allocation for VC 0 at input 0 (front: 9).
10 | network_0/router_level1_1 |   Acquiring assigned VC 0 at output 9.
10 | network_0/router_level1_1/buf_0/vc_0 | Changing state from vc_alloc to active.
10 | network_0/router_level1_2 | Adding flit 10 to VC 0 at input 0 (state: idle, empty).
10 | network_0/router_level1_2 | Using precomputed lookahead routing information for VC 0 at input 0 (front: 10).
10 | network_0/router_level1_2/buf_0/vc_0 | Changing state from idle to vc_alloc.
10 | network_0/router_level1_2 | Beginning VC allocation for VC 0 at input 0 (front: 10).
10 | network_0/router_level1_2 |   Requesting VC 0 at output 8 (in_pri: 0, out_pri: 0).
10 | network_0/router_level1_2 |   Requesting VC 1 at output 8 (in_pri: 0, out_pri: 0).
10 | network_0/router_level1_2 |   Requesting VC 2 at output 8 (in_pri: 0, out_pri: 0).
10 | network_0/router_level1_2 |   Requesting VC 3 at output 8 (in_pri: 0, out_pri: 0).
10 | network_0/router_level1_2/vc_allocator | Input requests = [ 0 -> [ 32@0 33@0 34@0 35@0 ]  4 -> [ 36@0 37@0 38@0 39@0 ]  16 -> [ 36@0 37@0 38@0 39@0 ]  24 -> [ 36@0 37@0 38@0 39@0 ]  ], output requests = [ 32 -> [ 0@0 ]  33 -> [ 0@0 ]  34 -> [ 0@0 ]  35 -> [ 0@0 ]  36 -> [ 4@0 16@0 24@0 ]  37 -> [ 4@0 16@0 24@0 ]  38 -> [ 4@0 16@0 24@0 ]  39 -> [ 4@0 16@0 24@0 ]  ].
10 | network_0/router_level1_2/vc_allocator | Input grants = [ 0 -> 32  4 -> 36  ], output grants = [ 32 -> 0  36 -> 4  ].
10 | network_0/router_level1_2 | Assigning VC 0 at output 8 to VC 0 at input 0.
10 | network_0/router_level1_2 | Completed VC allocation for VC 0 at input 0 (front: 10).
10 | network_0/router_level1_2 |   Acquiring assigned VC 0 at output 8.
10 | network_0/router_level1_2/buf_0/vc_0 | Changing state from vc_alloc to active.
10 | network_0/router_level1_16 | Adding flit 6 to VC 0 at input 0 (state: idle, empty).
10 | network_0/router_level1_16 | Using precomputed lookahead routing information for VC 0 at input 0 (front: 6).
10 | network_0/router_level1_16/buf_0/vc_0 | Changing state from idle to vc_alloc.
10 | network_0/router_level1_16 | Beginning VC allocation for VC 0 at input 0 (front: 6).
10 | network_0/router_level1_16 |   Requesting VC 0 at output 8 (in_pri: 0, out_pri: 0).
10 | network_0/router_level1_16 |   Requesting VC 1 at output 8 (in_pri: 0, out_pri: 0).
10 | network_0/router_level1_16 |   Requesting VC 2 at output 8 (in_pri: 0, out_pri: 0).
10 | network_0/router_level1_16 |   Requesting VC 3 at output 8 (in_pri: 0, out_pri: 0).
10 | network_0/router_level1_16/vc_allocator | Input requests = [ 0 -> [ 32@0 33@0 34@0 35@0 ]  8 -> [ 12@0 13@0 14@0 15@0 ]  24 -> [ 36@0 37@0 38@0 39@0 ]  ], output requests = [ 12 -> [ 8@0 ]  13 -> [ 8@0 ]  14 -> [ 8@0 ]  15 -> [ 8@0 ]  32 -> [ 0@0 ]  33 -> [ 0@0 ]  34 -> [ 0@0 ]  35 -> [ 0@0 ]  36 -> [ 24@0 ]  37 -> [ 24@0 ]  38 -> [ 24@0 ]  39 -> [ 24@0 ]  ].
10 | network_0/router_level1_16/vc_allocator | Input grants = [ 0 -> 32  8 -> 12  24 -> 36  ], output grants = [ 12 -> 8  32 -> 0  36 -> 24  ].
10 | network_0/router_level1_16 | Assigning VC 0 at output 8 to VC 0 at input 0.
10 | network_0/router_level1_16 | Completed VC allocation for VC 0 at input 0 (front: 6).
10 | network_0/router_level1_16 |   Acquiring assigned VC 0 at output 8.
10 | network_0/router_level1_16/buf_0/vc_0 | Changing state from vc_alloc to active.
10 | network_0/router_level1_17 | Adding flit 7 to VC 0 at input 0 (state: idle, empty).
10 | network_0/router_level1_17 | Using precomputed lookahead routing information for VC 0 at input 0 (front: 7).
10 | network_0/router_level1_17/buf_0/vc_0 | Changing state from idle to vc_alloc.
10 | network_0/router_level1_17 | Beginning VC allocation for VC 0 at input 0 (front: 7).
10 | network_0/router_level1_17 |   Requesting VC 0 at output 8 (in_pri: 0, out_pri: 0).
10 | network_0/router_level1_17 |   Requesting VC 1 at output 8 (in_pri: 0, out_pri: 0).
10 | network_0/router_level1_17 |   Requesting VC 2 at output 8 (in_pri: 0, out_pri: 0).
10 | network_0/router_level1_17 |   Requesting VC 3 at output 8 (in_pri: 0, out_pri: 0).
10 | network_0/router_level1_17/vc_allocator | Input requests = [ 0 -> [ 32@0 33@0 34@0 35@0 ]  ], output requests = [ 32 -> [ 0@0 ]  33 -> [ 0@0 ]  34 -> [ 0@0 ]  35 -> [ 0@0 ]  ].
10 | network_0/router_level1_17/vc_allocator | Input grants = [ 0 -> 32  ], output grants = [ 32 -> 0  ].
10 | network_0/router_level1_17 | Assigning VC 0 at output 8 to VC 0 at input 0.
10 | network_0/router_level1_17 | Completed VC allocation for VC 0 at input 0 (front: 7).
10 | network_0/router_level1_17 |   Acquiring assigned VC 0 at output 8.
10 | network_0/router_level1_17/buf_0/vc_0 | Changing state from vc_alloc to active.
10 | network_0/router_level1_19 | Adding flit 3 to VC 0 at input 0 (state: idle, empty).
10 | network_0/router_level1_19 | Using precomputed lookahead routing information for VC 0 at input 0 (front: 3).
10 | network_0/router_level1_19/buf_0/vc_0 | Changing state from idle to vc_alloc.
10 | network_0/router_level1_19 | Beginning VC allocation for VC 0 at input 0 (front: 3).
10 | network_0/router_level1_19 |   Requesting VC 0 at output 9 (in_pri: 0, out_pri: 0).
10 | network_0/router_level1_19 |   Requesting VC 1 at output 9 (in_pri: 0, out_pri: 0).
10 | network_0/router_level1_19 |   Requesting VC 2 at output 9 (in_pri: 0, out_pri: 0).
10 | network_0/router_level1_19 |   Requesting VC 3 at output 9 (in_pri: 0, out_pri: 0).
10 | network_0/router_level1_19/vc_allocator | Input requests = [ 0 -> [ 36@0 37@0 38@0 39@0 ]  16 -> [ 32@0 33@0 34@0 35@0 ]  28 -> [ 36@0 37@0 38@0 39@0 ]  ], output requests = [ 32 -> [ 16@0 ]  33 -> [ 16@0 ]  34 -> [ 16@0 ]  35 -> [ 16@0 ]  36 -> [ 0@0 28@0 ]  37 -> [ 0@0 28@0 ]  38 -> [ 0@0 28@0 ]  39 -> [ 0@0 28@0 ]  ].
10 | network_0/router_level1_19/vc_allocator | Input grants = [ 0 -> 36  16 -> 32  ], output grants = [ 32 -> 16  36 -> 0  ].
10 | network_0/router_level1_19 | Assigning VC 0 at output 9 to VC 0 at input 0.
10 | network_0/router_level1_19 | Completed VC allocation for VC 0 at input 0 (front: 3).
10 | network_0/router_level1_19 |   Acquiring assigned VC 0 at output 9.
10 | network_0/router_level1_19/buf_0/vc_0 | Changing state from vc_alloc to active.
10 | network_0/router_level1_23 | Adding flit 2 to VC 0 at input 0 (state: idle, empty).
10 | network_0/router_level1_23 | Using precomputed lookahead routing information for VC 0 at input 0 (front: 2).
10 | network_0/router_level1_23/buf_0/vc_0 | Changing state from idle to vc_alloc.
10 | network_0/router_level1_23 | Beginning VC allocation for VC 0 at input 0 (front: 2).
10 | network_0/router_level1_23 |   Requesting VC 0 at output 9 (in_pri: 0, out_pri: 0).
10 | network_0/router_level1_23 |   Requesting VC 1 at output 9 (in_pri: 0, out_pri: 0).
10 | network_0/router_level1_23 |   Requesting VC 2 at output 9 (in_pri: 0, out_pri: 0).
10 | network_0/router_level1_23 |   Requesting VC 3 at output 9 (in_pri: 0, out_pri: 0).
10 | network_0/router_level1_23/vc_allocator | Input requests = [ 0 -> [ 36@0 37@0 38@0 39@0 ]  4 -> [ 36@0 37@0 38@0 39@0 ]  24 -> [ 36@0 37@0 38@0 39@0 ]  28 -> [ 32@0 33@0 34@0 35@0 ]  ], output requests = [ 32 -> [ 28@0 ]  33 -> [ 28@0 ]  34 -> [ 28@0 ]  35 -> [ 28@0 ]  36 -> [ 0@0 4@0 24@0 ]  37 -> [ 0@0 4@0 24@0 ]  38 -> [ 0@0 4@0 24@0 ]  39 -> [ 0@0 4@0 24@0 ]  ].
10 | network_0/router_level1_23/vc_allocator | Input grants = [ 0 -> 36  28 -> 32  ], output grants = [ 32 -> 28  36 -> 0  ].
10 | network_0/router_level1_23 | Assigning VC 0 at output 9 to VC 0 at input 0.
10 | network_0/router_level1_23 | Completed VC allocation for VC 0 at input 0 (front: 2).
10 | network_0/router_level1_23 |   Acquiring assigned VC 0 at output 9.
10 | network_0/router_level1_23/buf_0/vc_0 | Changing state from vc_alloc to active.
10 | network_0/router_level1_58 | Adding flit 1 to VC 0 at input 0 (state: idle, empty).
10 | network_0/router_level1_58 | Using precomputed lookahead routing information for VC 0 at input 0 (front: 1).
10 | network_0/router_level1_58/buf_0/vc_0 | Changing state from idle to vc_alloc.
10 | network_0/router_level1_58 | Beginning VC allocation for VC 0 at input 0 (front: 1).
10 | network_0/router_level1_58 |   Requesting VC 0 at output 8 (in_pri: 0, out_pri: 0).
10 | network_0/router_level1_58 |   Requesting VC 1 at output 8 (in_pri: 0, out_pri: 0).
10 | network_0/router_level1_58 |   Requesting VC 2 at output 8 (in_pri: 0, out_pri: 0).
10 | network_0/router_level1_58 |   Requesting VC 3 at output 8 (in_pri: 0, out_pri: 0).
10 | network_0/router_level1_58/vc_allocator | Input requests = [ 0 -> [ 32@0 33@0 34@0 35@0 ]  4 -> [ 36@0 37@0 38@0 39@0 ]  20 -> [ 36@0 37@0 38@0 39@0 ]  24 -> [ 12@0 13@0 14@0 15@0 ]  28 -> [ 16@0 17@0 18@0 19@0 ]  ], output requests = [ 12 -> [ 24@0 ]  13 -> [ 24@0 ]  14 -> [ 24@0 ]  15 -> [ 24@0 ]  16 -> [ 28@0 ]  17 -> [ 28@0 ]  18 -> [ 28@0 ]  19 -> [ 28@0 ]  32 -> [ 0@0 ]  33 -> [ 0@0 ]  34 -> [ 0@0 ]  35 -> [ 0@0 ]  36 -> [ 4@0 20@0 ]  37 -> [ 4@0 20@0 ]  38 -> [ 4@0 20@0 ]  39 -> [ 4@0 20@0 ]  ].
10 | network_0/router_level1_58/vc_allocator | Input grants = [ 0 -> 32  4 -> 36  24 -> 12  28 -> 16  ], output grants = [ 12 -> 24  16 -> 28  32 -> 0  36 -> 4  ].
10 | network_0/router_level1_58 | Assigning VC 0 at output 8 to VC 0 at input 0.
10 | network_0/router_level1_58 | Completed VC allocation for VC 0 at input 0 (front: 1).
10 | network_0/router_level1_58 |   Acquiring assigned VC 0 at output 8.
10 | network_0/router_level1_58/buf_0/vc_0 | Changing state from vc_alloc to active.
10 | network_0/router_level1_60 | Adding flit 8 to VC 0 at input 0 (state: idle, empty).
10 | network_0/router_level1_60 | Using precomputed lookahead routing information for VC 0 at input 0 (front: 8).
10 | network_0/router_level1_60/buf_0/vc_0 | Changing state from idle to vc_alloc.
10 | network_0/router_level1_60 | Beginning VC allocation for VC 0 at input 0 (front: 8).
10 | network_0/router_level1_60 |   Requesting VC 0 at output 9 (in_pri: 0, out_pri: 0).
10 | network_0/router_level1_60 |   Requesting VC 1 at output 9 (in_pri: 0, out_pri: 0).
10 | network_0/router_level1_60 |   Requesting VC 2 at output 9 (in_pri: 0, out_pri: 0).
10 | network_0/router_level1_60 |   Requesting VC 3 at output 9 (in_pri: 0, out_pri: 0).
10 | network_0/router_level1_60/vc_allocator | Input requests = [ 0 -> [ 36@0 37@0 38@0 39@0 ]  8 -> [ 36@0 37@0 38@0 39@0 ]  28 -> [ 32@0 33@0 34@0 35@0 ]  ], output requests = [ 32 -> [ 28@0 ]  33 -> [ 28@0 ]  34 -> [ 28@0 ]  35 -> [ 28@0 ]  36 -> [ 0@0 8@0 ]  37 -> [ 0@0 8@0 ]  38 -> [ 0@0 8@0 ]  39 -> [ 0@0 8@0 ]  ].
10 | network_0/router_level1_60/vc_allocator | Input grants = [ 0 -> 36  28 -> 32  ], output grants = [ 32 -> 28  36 -> 0  ].
10 | network_0/router_level1_60 | Assigning VC 0 at output 9 to VC 0 at input 0.
10 | network_0/router_level1_60 | Completed VC allocation for VC 0 at input 0 (front: 8).
10 | network_0/router_level1_60 |   Acquiring assigned VC 0 at output 9.
10 | network_0/router_level1_60/buf_0/vc_0 | Changing state from vc_alloc to active.
10 | network_0/router_level1_61 | Adding flit 4 to VC 0 at input 0 (state: idle, empty).
10 | network_0/router_level1_61 | Using precomputed lookahead routing information for VC 0 at input 0 (front: 4).
10 | network_0/router_level1_61/buf_0/vc_0 | Changing state from idle to vc_alloc.
10 | network_0/router_level1_61 | Beginning VC allocation for VC 0 at input 0 (front: 4).
10 | network_0/router_level1_61 |   Requesting VC 0 at output 8 (in_pri: 0, out_pri: 0).
10 | network_0/router_level1_61 |   Requesting VC 1 at output 8 (in_pri: 0, out_pri: 0).
10 | network_0/router_level1_61 |   Requesting VC 2 at output 8 (in_pri: 0, out_pri: 0).
10 | network_0/router_level1_61 |   Requesting VC 3 at output 8 (in_pri: 0, out_pri: 0).
10 | network_0/router_level1_61/vc_allocator | Input requests = [ 0 -> [ 32@0 33@0 34@0 35@0 ]  4 -> [ 32@0 33@0 34@0 35@0 ]  28 -> [ 32@0 33@0 34@0 35@0 ]  ], output requests = [ 32 -> [ 0@0 4@0 28@0 ]  33 -> [ 0@0 4@0 28@0 ]  34 -> [ 0@0 4@0 28@0 ]  35 -> [ 0@0 4@0 28@0 ]  ].
10 | network_0/router_level1_61/vc_allocator | Input grants = [ 0 -> 32  ], output grants = [ 32 -> 0  ].
10 | network_0/router_level1_61 | Assigning VC 0 at output 8 to VC 0 at input 0.
10 | network_0/router_level1_61 | Completed VC allocation for VC 0 at input 0 (front: 4).
10 | network_0/router_level1_61 |   Acquiring assigned VC 0 at output 8.
10 | network_0/router_level1_61/buf_0/vc_0 | Changing state from vc_alloc to active.
10 | network_0/network_0_fchan_12305 | Completed channel traversal for flit 5.
11 | network_0/router_level1_10 | Received flit 5 from channel at input 0.
11 | network_0/router_level1_1 | Beginning switch allocation for VC 0 at input 0 (front: 9).
11 | network_0/router_level1_1 |   Requesting output 9.0 (non-spec, pri: 0).
11 | network_0/router_level1_1/sw_allocator | Input requests = [ 0 -> [ 9@0 ]  5 -> [ 8@0 ]  ], output requests = [ 8 -> [ 5@0 ]  9 -> [ 0@0 ]  ].
11 | network_0/router_level1_1/sw_allocator | Input grants = [ 0 -> 9  5 -> 8  ], output grants = [ 8 -> 5  9 -> 0  ].
11 | network_0/router_level1_1 | Assigning output 9.0 to VC 0 at input 0.0.
11 | network_0/router_level1_1 | Completed switch allocation for VC 0 at input 0 (front: 9).
11 | network_0/router_level1_1 |   Scheduling switch connection from input 0.0 to output 9.0.
11 | network_0/router_level1_1 | Updating lookahead routing information for flit 9.
11 | network_0/router_level1_2 | Beginning switch allocation for VC 0 at input 0 (front: 10).
11 | network_0/router_level1_2 |   Requesting output 8.0 (non-spec, pri: 0).
11 | network_0/router_level1_2/sw_allocator | Input requests = [ 0 -> [ 8@0 ]  1 -> [ 9@0 ]  ], output requests = [ 8 -> [ 0@0 ]  9 -> [ 1@0 ]  ].
11 | network_0/router_level1_2/sw_allocator | Input grants = [ 0 -> 8  1 -> 9  ], output grants = [ 8 -> 0  9 -> 1  ].
11 | network_0/router_level1_2 | Assigning output 8.0 to VC 0 at input 0.0.
11 | network_0/router_level1_2 | Completed switch allocation for VC 0 at input 0 (front: 10).
11 | network_0/router_level1_2 |   Scheduling switch connection from input 0.0 to output 8.0.
11 | network_0/router_level1_2 | Updating lookahead routing information for flit 10.
11 | network_0/router_level1_10 | Adding flit 5 to VC 0 at input 0 (state: idle, empty).
11 | network_0/router_level1_10 | Using precomputed lookahead routing information for VC 0 at input 0 (front: 5).
11 | network_0/router_level1_10/buf_0/vc_0 | Changing state from idle to vc_alloc.
11 | network_0/router_level1_10 | Beginning VC allocation for VC 0 at input 0 (front: 5).
11 | network_0/router_level1_10 |   VC 0 at output 8 is in use by VC 0 at input 1 (front flit: 45).
11 | network_0/router_level1_10 |   Requesting VC 1 at output 8 (in_pri: 0, out_pri: 0).
11 | network_0/router_level1_10 |   Requesting VC 2 at output 8 (in_pri: 0, out_pri: 0).
11 | network_0/router_level1_10 |   Requesting VC 3 at output 8 (in_pri: 0, out_pri: 0).
11 | network_0/router_level1_10/vc_allocator | Input requests = [ 0 -> [ 33@0 34@0 35@0 ]  16 -> [ 33@0 34@0 35@0 ]  20 -> [ 37@0 38@0 39@0 ]  21 -> [ 33@0 34@0 35@0 ]  ], output requests = [ 33 -> [ 0@0 16@0 21@0 ]  34 -> [ 0@0 16@0 21@0 ]  35 -> [ 0@0 16@0 21@0 ]  37 -> [ 20@0 ]  38 -> [ 20@0 ]  39 -> [ 20@0 ]  ].
11 | network_0/router_level1_10/vc_allocator | Input grants = [ 0 -> 33  20 -> 37  ], output grants = [ 33 -> 0  37 -> 20  ].
11 | network_0/router_level1_10 | Assigning VC 1 at output 8 to VC 0 at input 0.
11 | network_0/router_level1_10 | Completed VC allocation for VC 0 at input 0 (front: 5).
11 | network_0/router_level1_10 |   Acquiring assigned VC 1 at output 8.
11 | network_0/router_level1_10/buf_0/vc_0 | Changing state from vc_alloc to active.
11 | network_0/router_level1_16 | Beginning switch allocation for VC 0 at input 0 (front: 6).
11 | network_0/router_level1_16 |   Requesting output 8.0 (non-spec, pri: 0).
11 | network_0/router_level1_16/sw_allocator | Input requests = [ 0 -> [ 8@0 ]  2 -> [ 3@0 ]  6 -> [ 9@0 ]  ], output requests = [ 3 -> [ 2@0 ]  8 -> [ 0@0 ]  9 -> [ 6@0 ]  ].
11 | network_0/router_level1_16/sw_allocator | Input grants = [ 0 -> 8  2 -> 3  6 -> 9  ], output grants = [ 3 -> 2  8 -> 0  9 -> 6  ].
11 | network_0/router_level1_16 | Assigning output 8.0 to VC 0 at input 0.0.
11 | network_0/router_level1_16 | Completed switch allocation for VC 0 at input 0 (front: 6).
11 | network_0/router_level1_16 |   Scheduling switch connection from input 0.0 to output 8.0.
11 | network_0/router_level1_16 | Updating lookahead routing information for flit 6.
11 | network_0/router_level1_17 | Beginning switch allocation for VC 0 at input 0 (front: 7).
11 | network_0/router_level1_17 |   Requesting output 8.0 (non-spec, pri: 0).
11 | network_0/router_level1_17/sw_allocator | Input requests = [ 0 -> [ 8@0 ]  ], output requests = [ 8 -> [ 0@0 ]  ].
11 | network_0/router_level1_17/sw_allocator | Input grants = [ 0 -> 8  ], output grants = [ 8 -> 0  ].
11 | network_0/router_level1_17 | Assigning output 8.0 to VC 0 at input 0.0.
11 | network_0/router_level1_17 | Completed switch allocation for VC 0 at input 0 (front: 7).
11 | network_0/router_level1_17 |   Scheduling switch connection from input 0.0 to output 8.0.
11 | network_0/router_level1_17 | Updating lookahead routing information for flit 7.
11 | network_0/router_level1_19 | Beginning switch allocation for VC 0 at input 0 (front: 3).
11 | network_0/router_level1_19 |   Requesting output 9.0 (non-spec, pri: 0).
11 | network_0/router_level1_19/sw_allocator | Input requests = [ 0 -> [ 9@0 ]  4 -> [ 8@0 ]  ], output requests = [ 8 -> [ 4@0 ]  9 -> [ 0@0 ]  ].
11 | network_0/router_level1_19/sw_allocator | Input grants = [ 0 -> 9  4 -> 8  ], output grants = [ 8 -> 4  9 -> 0  ].
11 | network_0/router_level1_19 | Assigning output 9.0 to VC 0 at input 0.0.
11 | network_0/router_level1_19 | Completed switch allocation for VC 0 at input 0 (front: 3).
11 | network_0/router_level1_19 |   Scheduling switch connection from input 0.0 to output 9.0.
11 | network_0/router_level1_19 | Updating lookahead routing information for flit 3.
11 | network_0/router_level1_23 | Beginning switch allocation for VC 0 at input 0 (front: 2).
11 | network_0/router_level1_23 |   Requesting output 9.0 (non-spec, pri: 0).
[...]
28 | network_0/router_level3_64/sw_allocator | Input grants = [ 1 -> 15  2 -> 11  4 -> 14  6 -> 10  7 -> 9  9 -> 5  10 -> 0  13 -> 1  ], output grants = [ 0 -> 10  1 -> 13  5 -> 9  9 -> 7  10 -> 6  11 -> 2  14 -> 4  15 -> 1  ].
28 | network_0/router_level3_64 | Assigning output 0.0 to VC 1 at input 10.0.
28 | network_0/router_level3_64 | Completed switch allocation for VC 1 at input 10 (front: 1).
28 | network_0/router_level3_64 |   Scheduling switch connection from input 10.0 to output 0.0.
28 | network_0/router_level3_72 | Beginning VC allocation for VC 0 at input 15 (front: 2).
28 | network_0/router_level3_72 |   VC 0 at output 0 is in use by VC 0 at input 14 (front flit: 1779).
28 | network_0/router_level3_72 |   Requesting VC 1 at output 0 (in_pri: 0, out_pri: 0).
28 | network_0/router_level3_72 |   Requesting VC 2 at output 0 (in_pri: 0, out_pri: 0).
28 | network_0/router_level3_72 |   Requesting VC 3 at output 0 (in_pri: 0, out_pri: 0).
28 | network_0/router_level3_72/vc_allocator | Input requests = [ 3 -> [ 33@0 34@0 35@0 ]  12 -> [ 56@0 57@0 59@0 ]  19 -> [ 41@0 42@0 43@0 ]  29 -> [ 50@0 51@0 ]  32 -> [ 24@0 25@0 26@0 27@0 ]  60 -> [ 1@0 2@0 3@0 ]  ], output requests = [ 1 -> [ 60@0 ]  2 -> [ 60@0 ]  3 -> [ 60@0 ]  24 -> [ 32@0 ]  25 -> [ 32@0 ]  26 -> [ 32@0 ]  27 -> [ 32@0 ]  33 -> [ 3@0 ]  34 -> [ 3@0 ]  35 -> [ 3@0 ]  41 -> [ 19@0 ]  42 -> [ 19@0 ]  43 -> [ 19@0 ]  50 -> [ 29@0 ]  51 -> [ 29@0 ]  56 -> [ 12@0 ]  57 -> [ 12@0 ]  59 -> [ 12@0 ]  ].
28 | network_0/router_level3_72/vc_allocator | Input grants = [ 3 -> 33  12 -> 56  19 -> 41  29 -> 50  32 -> 24  60 -> 1  ], output grants = [ 1 -> 60  24 -> 32  33 -> 3  41 -> 19  50 -> 29  56 -> 12  ].
28 | network_0/router_level3_72 | Assigning VC 1 at output 0 to VC 0 at input 15.
28 | network_0/router_level3_72 | Completed VC allocation for VC 0 at input 15 (front: 2).
28 | network_0/router_level3_72 |   Acquiring assigned VC 1 at output 0.
28 | network_0/router_level3_72/buf_15/vc_0 | Changing state from vc_alloc to active.
28 | network_0/router_level3_88 | Beginning crossbar traversal for flit 3 from input 11.0 to output 0.0.
28 | network_0/router_level3_88 | Completed crossbar traversal for flit 3 from input 11.0 to output 0.0.
28 | network_0/router_level3_88 | Buffering flit 3 at output 0.
28 | network_0/router_level3_96 | Beginning crossbar traversal for flit 4 from input 13.0 to output 0.0.
28 | network_0/router_level3_96 | Completed crossbar traversal for flit 4 from input 13.0 to output 0.0.
28 | network_0/router_level3_96 | Buffering flit 4 at output 0.
28 | network_0/router_level3_104 | Beginning switch allocation for VC 0 at input 10 (front: 5).
28 | network_0/router_level3_104 |   Requesting output 0.0 (non-spec, pri: 0).
28 | network_0/router_level3_104/sw_allocator | Input requests = [ 0 -> [ 9@0 ]  2 -> [ 10@0 ]  4 -> [ 11@0 ]  5 -> [ 8@0 ]  7 -> [ 14@0 ]  10 -> [ 0@0 ]  14 -> [ 1@0 ]  ], output requests = [ 0 -> [ 10@0 ]  1 -> [ 14@0 ]  8 -> [ 5@0 ]  9 -> [ 0@0 ]  10 -> [ 2@0 ]  11 -> [ 4@0 ]  14 -> [ 7@0 ]  ].
28 | network_0/router_level3_104/sw_allocator | Input grants = [ 0 -> 9  2 -> 10  4 -> 11  5 -> 8  7 -> 14  10 -> 0  14 -> 1  ], output grants = [ 0 -> 10  1 -> 14  8 -> 5  9 -> 0  10 -> 2  11 -> 4  14 -> 7  ].
28 | network_0/router_level3_104 | Assigning output 0.0 to VC 0 at input 10.0.
28 | network_0/router_level3_104 | Completed switch allocation for VC 0 at input 10 (front: 5).
28 | network_0/router_level3_104 |   Scheduling switch connection from input 10.0 to output 0.0.
28 | network_0/router_level3_112 | Adding flit 6 to VC 0 at input 8 (state: idle, empty).
28 | network_0/router_level3_112 | Using precomputed lookahead routing information for VC 0 at input 8 (front: 6).
28 | network_0/router_level3_112/buf_8/vc_0 | Changing state from idle to vc_alloc.
28 | network_0/router_level3_112 | Beginning VC allocation for VC 0 at input 8 (front: 6).
28 | network_0/router_level3_112 |   Requesting VC 0 at output 0 (in_pri: 0, out_pri: 0).
28 | network_0/router_level3_112 |   Requesting VC 1 at output 0 (in_pri: 0, out_pri: 0).
28 | network_0/router_level3_112 |   Requesting VC 2 at output 0 (in_pri: 0, out_pri: 0).
28 | network_0/router_level3_112 |   Requesting VC 3 at output 0 (in_pri: 0, out_pri: 0).
28 | network_0/router_level3_112/vc_allocator | Input requests = [ 11 -> [ 32@0 34@0 35@0 ]  18 -> [ 40@0 42@0 43@0 ]  27 -> [ 52@0 53@0 54@0 55@0 ]  29 -> [ 40@0 42@0 43@0 ]  32 -> [ 0@0 1@0 2@0 3@0 ]  60 -> [ 12@0 13@0 14@0 15@0 ]  ], output requests = [ 0 -> [ 32@0 ]  1 -> [ 32@0 ]  2 -> [ 32@0 ]  3 -> [ 32@0 ]  12 -> [ 60@0 ]  13 -> [ 60@0 ]  14 -> [ 60@0 ]  15 -> [ 60@0 ]  32 -> [ 11@0 ]  34 -> [ 11@0 ]  35 -> [ 11@0 ]  40 -> [ 18@0 29@0 ]  42 -> [ 18@0 29@0 ]  43 -> [ 18@0 29@0 ]  52 -> [ 27@0 ]  53 -> [ 27@0 ]  54 -> [ 27@0 ]  55 -> [ 27@0 ]  ].
28 | network_0/router_level3_112/vc_allocator | Input grants = [ 11 -> 32  18 -> 40  27 -> 52  32 -> 0  60 -> 12  ], output grants = [ 0 -> 32  12 -> 60  32 -> 11  40 -> 18  52 -> 27  ].
28 | network_0/router_level3_112 | Assigning VC 0 at output 0 to VC 0 at input 8.
28 | network_0/router_level3_112 | Completed VC allocation for VC 0 at input 8 (front: 6).
28 | network_0/router_level3_112 |   Acquiring assigned VC 0 at output 0.
28 | network_0/router_level3_112/buf_8/vc_0 | Changing state from vc_alloc to active.
28 | network_0/router_level3_120 | Beginning crossbar traversal for flit 7 from input 9.0 to output 0.0.
28 | network_0/router_level3_120 | Completed crossbar traversal for flit 7 from input 9.0 to output 0.0.
28 | network_0/router_level3_120 | Buffering flit 7 at output 0.
28 | network_0/router_level3_144 | Adding flit 8 to VC 0 at input 12 (state: idle, empty).
28 | network_0/router_level3_144 | Using precomputed lookahead routing information for VC 0 at input 12 (front: 8).
28 | network_0/router_level3_144/buf_12/vc_0 | Changing state from idle to vc_alloc.
28 | network_0/router_level3_144 | Beginning VC allocation for VC 0 at input 12 (front: 8).
28 | network_0/router_level3_144 |   VC 0 at output 0 is in use by VC 0 at input 13 (front flit: 1784).
28 | network_0/router_level3_144 |   Requesting VC 1 at output 0 (in_pri: 0, out_pri: 0).
28 | network_0/router_level3_144 |   Requesting VC 2 at output 0 (in_pri: 0, out_pri: 0).
28 | network_0/router_level3_144 |   Requesting VC 3 at output 0 (in_pri: 0, out_pri: 0).
28 | network_0/router_level3_144/vc_allocator | Input requests = [ 6 -> [ 36@0 37@0 38@0 39@0 ]  13 -> [ 40@0 42@0 43@0 ]  18 -> [ 33@0 34@0 35@0 ]  21 -> [ 40@0 42@0 43@0 ]  22 -> [ 56@0 57@0 58@0 59@0 ]  40 -> [ 16@0 17@0 18@0 19@0 ]  44 -> [ 24@0 25@0 26@0 27@0 ]  48 -> [ 1@0 2@0 3@0 ]  ], output requests = [ 1 -> [ 48@0 ]  2 -> [ 48@0 ]  3 -> [ 48@0 ]  16 -> [ 40@0 ]  17 -> [ 40@0 ]  18 -> [ 40@0 ]  19 -> [ 40@0 ]  24 -> [ 44@0 ]  25 -> [ 44@0 ]  26 -> [ 44@0 ]  27 -> [ 44@0 ]  33 -> [ 18@0 ]  34 -> [ 18@0 ]  35 -> [ 18@0 ]  36 -> [ 6@0 ]  37 -> [ 6@0 ]  38 -> [ 6@0 ]  39 -> [ 6@0 ]  40 -> [ 13@0 21@0 ]  42 -> [ 13@0 21@0 ]  43 -> [ 13@0 21@0 ]  56 -> [ 22@0 ]  57 -> [ 22@0 ]  58 -> [ 22@0 ]  59 -> [ 22@0 ]  ].
28 | network_0/router_level3_144/vc_allocator | Input grants = [ 6 -> 36  13 -> 40  18 -> 33  22 -> 56  40 -> 16  44 -> 24  48 -> 1  ], output grants = [ 1 -> 48  16 -> 40  24 -> 44  33 -> 18  36 -> 6  40 -> 13  56 -> 22  ].
28 | network_0/router_level3_144 | Assigning VC 1 at output 0 to VC 0 at input 12.
28 | network_0/router_level3_144 | Completed VC allocation for VC 0 at input 12 (front: 8).
28 | network_0/router_level3_144 |   Acquiring assigned VC 1 at output 0.
28 | network_0/router_level3_144/buf_12/vc_0 | Changing state from vc_alloc to active.
28 | network_0/router_level3_152 | Beginning crossbar traversal for flit 9 from input 9.0 to output 0.0.
28 | network_0/router_level3_152 | Completed crossbar traversal for flit 9 from input 9.0 to output 0.0.
28 | network_0/router_level3_152 | Buffering flit 9 at output 0.
28 | network_0/router_level3_160 | Beginning crossbar traversal for flit 10 from input 10.0 to output 0.0.
28 | network_0/router_level3_160 | Completed crossbar traversal for flit 10 from input 10.0 to output 0.0.
28 | network_0/router_level3_160 | Buffering flit 10 at output 0.
28 | network_0/router_level3_88 | Sending flit 3 to channel at output 0.
28 | network_0/router_level3_96 | Sending flit 4 to channel at output 0.
28 | network_0/router_level3_120 | Sending flit 7 to channel at output 0.
28 | network_0/router_level3_152 | Sending flit 9 to channel at output 0.
28 | network_0/router_level3_160 | Sending flit 10 to channel at output 0.
29 | network_0/network_0_fchan_egress704 | Beginning channel traversal for flit 3 with delay 1.
29 | network_0/network_0_fchan_egress768 | Beginning channel traversal for flit 4 with delay 1.
29 | network_0/network_0_fchan_egress960 | Beginning channel traversal for flit 7 with delay 1.
29 | network_0/network_0_fchan_egress1216 | Beginning channel traversal for flit 9 with delay 1.
29 | network_0/network_0_fchan_egress1280 | Beginning channel traversal for flit 10 with delay 1.
29 | network_0/router_level3_64 | Beginning crossbar traversal for flit 1 from input 10.0 to output 0.0.
29 | network_0/router_level3_64 | Completed crossbar traversal for flit 1 from input 10.0 to output 0.0.
29 | network_0/router_level3_64 | Buffering flit 1 at output 0.
29 | network_0/router_level3_72 | Beginning switch allocation for VC 0 at input 15 (front: 2).
29 | network_0/router_level3_72 |   Requesting output 0.0 (non-spec, pri: 0).
29 | network_0/router_level3_72/sw_allocator | Input requests = [ 0 -> [ 8@0 ]  2 -> [ 8@0 10@0 ]  3 -> [ 12@0 14@0 ]  4 -> [ 10@0 ]  5 -> [ 11@0 ]  7 -> [ 12@0 ]  8 -> [ 6@0 ]  15 -> [ 0@0 ]  ], output requests = [ 0 -> [ 15@0 ]  6 -> [ 8@0 ]  8 -> [ 0@0 2@0 ]  10 -> [ 2@0 4@0 ]  11 -> [ 5@0 ]  12 -> [ 3@0 7@0 ]  14 -> [ 3@0 ]  ].
29 | network_0/router_level3_72/sw_allocator | Input grants = [ 0 -> 8  3 -> 12  4 -> 10  5 -> 11  8 -> 6  15 -> 0  ], output grants = [ 0 -> 15  6 -> 8  8 -> 0  10 -> 4  11 -> 5  12 -> 3  ].
29 | network_0/router_level3_72 | Assigning output 0.0 to VC 0 at input 15.0.
29 | network_0/router_level3_72 | Completed switch allocation for VC 0 at input 15 (front: 2).
29 | network_0/router_level3_72 |   Scheduling switch connection from input 15.0 to output 0.0.
29 | network_0/router_level3_104 | Beginning crossbar traversal for flit 5 from input 10.0 to output 0.0.
29 | network_0/router_level3_104 | Completed crossbar traversal for flit 5 from input 10.0 to output 0.0.
29 | network_0/router_level3_104 | Buffering flit 5 at output 0.
29 | network_0/router_level3_112 | Beginning switch allocation for VC 0 at input 8 (front: 6).
29 | network_0/router_level3_112 |   Requesting output 0.0 (non-spec, pri: 0).
29 | network_0/router_level3_112/sw_allocator | Input requests = [ 0 -> [ 8@0 ]  2 -> [ 8@0 15@0 ]  4 -> [ 10@0 ]  6 -> [ 13@0 ]  8 -> [ 0@0 ]  15 -> [ 3@0 ]  ], output requests = [ 0 -> [ 8@0 ]  3 -> [ 15@0 ]  8 -> [ 0@0 2@0 ]  10 -> [ 4@0 ]  13 -> [ 6@0 ]  15 -> [ 2@0 ]  ].
29 | network_0/router_level3_112/sw_allocator | Input grants = [ 2 -> 8  4 -> 10  6 -> 13  8 -> 0  15 -> 3  ], output grants = [ 0 -> 8  3 -> 15  8 -> 2  10 -> 4  13 -> 6  ].
29 | network_0/router_level3_112 | Assigning output 0.0 to VC 0 at input 8.0.
29 | network_0/router_level3_112 | Completed switch allocation for VC 0 at input 8 (front: 6).
29 | network_0/router_level3_112 |   Scheduling switch connection from input 8.0 to output 0.0.
29 | network_0/router_level3_144 | Beginning switch allocation for VC 0 at input 12 (front: 8).
29 | network_0/router_level3_144 |   Requesting output 0.0 (non-spec, pri: 0).
29 | network_0/router_level3_144/sw_allocator | Input requests = [ 1 -> [ 9@0 ]  3 -> [ 10@0 ]  4 -> [ 8@0 ]  5 -> [ 14@0 ]  10 -> [ 4@0 ]  11 -> [ 6@0 ]  12 -> [ 0@0 ]  ], output requests = [ 0 -> [ 12@0 ]  4 -> [ 10@0 ]  6 -> [ 11@0 ]  8 -> [ 4@0 ]  9 -> [ 1@0 ]  10 -> [ 3@0 ]  14 -> [ 5@0 ]  ].
29 | network_0/router_level3_144/sw_allocator | Input grants = [ 1 -> 9  3 -> 10  4 -> 8  5 -> 14  10 -> 4  11 -> 6  12 -> 0  ], output grants = [ 0 -> 12  4 -> 10  6 -> 11  8 -> 4  9 -> 1  10 -> 3  14 -> 5  ].
29 | network_0/router_level3_144 | Assigning output 0.0 to VC 0 at input 12.0.
29 | network_0/router_level3_144 | Completed switch allocation for VC 0 at input 12 (front: 8).
29 | network_0/router_level3_144 |   Scheduling switch connection from input 12.0 to output 0.0.
29 | network_0/network_0_fchan_egress704 | Completed channel traversal for flit 3.
29 | network_0/network_0_fchan_egress768 | Completed channel traversal for flit 4.
29 | network_0/network_0_fchan_egress960 | Completed channel traversal for flit 7.
29 | network_0/network_0_fchan_egress1216 | Completed channel traversal for flit 9.
29 | network_0/network_0_fchan_egress1280 | Completed channel traversal for flit 10.
29 | network_0/router_level3_64 | Sending flit 1 to channel at output 0.
29 | network_0/router_level3_104 | Sending flit 5 to channel at output 0.
30 | node704 | Ejecting flit 3 (packet 3) from VC 0.
30 | node768 | Ejecting flit 4 (packet 4) from VC 0.
30 | node960 | Ejecting flit 7 (packet 7) from VC 0.
30 | node1216 | Ejecting flit 9 (packet 9) from VC 0.
30 | node1280 | Ejecting flit 10 (packet 10) from VC 0.
30 | network_0/network_0_fchan_egress512 | Beginning channel traversal for flit 1 with delay 1.
30 | network_0/network_0_fchan_egress832 | Beginning channel traversal for flit 5 with delay 1.
30 | node704 | Injecting credit for VC 0 into subnet 0.
30 | node704 | Retiring flit 3 (packet 3, src = 11, dest = 704, hops = 7, flat = 30).
30 | node704 | Retiring packet 3 (plat = 30, nlat = 30, frag = 0, src = 11, dest = 704).
30 | node768 | Injecting credit for VC 0 into subnet 0.
30 | node768 | Retiring flit 4 (packet 4, src = 12, dest = 768, hops = 7, flat = 30).
30 | node768 | Retiring packet 4 (plat = 30, nlat = 30, frag = 0, src = 12, dest = 768).
30 | node960 | Injecting credit for VC 0 into subnet 0.
30 | node960 | Retiring flit 7 (packet 7, src = 15, dest = 960, hops = 7, flat = 30).
30 | node960 | Retiring packet 7 (plat = 30, nlat = 30, frag = 0, src = 15, dest = 960).
30 | node1216 | Injecting credit for VC 0 into subnet 0.
30 | node1216 | Retiring flit 9 (packet 9, src = 19, dest = 1216, hops = 7, flat = 30).
30 | node1216 | Retiring packet 9 (plat = 30, nlat = 30, frag = 0, src = 19, dest = 1216).
30 | node1280 | Injecting credit for VC 0 into subnet 0.
30 | node1280 | Retiring flit 10 (packet 10, src = 20, dest = 1280, hops = 7, flat = 30).
30 | node1280 | Retiring packet 10 (plat = 30, nlat = 30, frag = 0, src = 20, dest = 1280).
30 | network_0/router_level3_72 | Beginning crossbar traversal for flit 2 from input 15.0 to output 0.0.
30 | network_0/router_level3_72 | Completed crossbar traversal for flit 2 from input 15.0 to output 0.0.
30 | network_0/router_level3_72 | Buffering flit 2 at output 0.
30 | network_0/router_level3_112 | Beginning crossbar traversal for flit 6 from input 8.0 to output 0.0.
30 | network_0/router_level3_112 | Completed crossbar traversal for flit 6 from input 8.0 to output 0.0.
30 | network_0/router_level3_112 | Buffering flit 6 at output 0.
30 | network_0/router_level3_144 | Beginning crossbar traversal for flit 8 from input 12.0 to output 0.0.
30 | network_0/router_level3_144 | Completed crossbar traversal for flit 8 from input 12.0 to output 0.0.
30 | network_0/router_level3_144 | Buffering flit 8 at output 0.
30 | network_0/network_0_fchan_egress512 | Completed channel traversal for flit 1.
30 | network_0/network_0_fchan_egress832 | Completed channel traversal for flit 5.
30 | network_0/router_level3_72 | Sending flit 2 to channel at output 0.
30 | network_0/router_level3_112 | Sending flit 6 to channel at output 0.
30 | network_0/router_level3_144 | Sending flit 8 to channel at output 0.
31 | node512 | Ejecting flit 1 (packet 1) from VC 0.
31 | node832 | Ejecting flit 5 (packet 5) from VC 0.
31 | network_0/network_0_fchan_egress576 | Beginning channel traversal for flit 2 with delay 1.
31 | network_0/network_0_fchan_egress896 | Beginning channel traversal for flit 6 with delay 1.
31 | network_0/network_0_fchan_egress1152 | Beginning channel traversal for flit 8 with delay 1.
31 | node512 | Injecting credit for VC 0 into subnet 0.
31 | node512 | Retiring flit 1 (packet 1, src = 8, dest = 512, hops = 7, flat = 31).
31 | node512 | Retiring packet 1 (plat = 31, nlat = 31, frag = 0, src = 8, dest = 512).
31 | node832 | Injecting credit for VC 0 into subnet 0.
31 | node832 | Retiring flit 5 (packet 5, src = 13, dest = 832, hops = 7, flat = 31).
31 | node832 | Retiring packet 5 (plat = 31, nlat = 31, frag = 0, src = 13, dest = 832).
31 | network_0/network_0_fchan_egress576 | Completed channel traversal for flit 2.
31 | network_0/network_0_fchan_egress896 | Completed channel traversal for flit 6.
31 | network_0/network_0_fchan_egress1152 | Completed channel traversal for flit 8.
32 | node576 | Ejecting flit 2 (packet 2) from VC 1.
32 | node896 | Ejecting flit 6 (packet 6) from VC 0.
32 | node1152 | Ejecting flit 8 (packet 8) from VC 1.
32 | node576 | Injecting credit for VC 1 into subnet 0.
32 | node576 | Retiring flit 2 (packet 2, src = 9, dest = 576, hops = 7, flat = 32).
32 | node576 | Retiring packet 2 (plat = 32, nlat = 32, frag = 0, src = 9, dest = 576).
32 | node896 | Injecting credit for VC 0 into subnet 0.
32 | node896 | Retiring flit 6 (packet 6, src = 14, dest = 896, hops = 7, flat = 32).
32 | node896 | Retiring packet 6 (plat = 32, nlat = 32, frag = 0, src = 14, dest = 896).
32 | node1152 | Injecting credit for VC 1 into subnet 0.
32 | node1152 | Retiring flit 8 (packet 8, src = 18, dest = 1152, hops = 7, flat = 32).
32 | node1152 | Retiring packet 8 (plat = 32, nlat = 32, frag = 0, src = 18, dest = 1152).
Class 0:
Packet latency average = 279.183
	minimum = 6
	maximum = 810
Network latency average = 279.182
	minimum = 6
	maximum = 810
Slowest packet = 347996
Flit latency average = 279.182
	minimum = 6
	maximum = 810
Slowest flit = 347996
Fragmentation average = 0
	minimum = 0
	maximum = 0
Injected packet rate average = 0.373786
	minimum = 0.292 (at node 3815)
	maximum = 0.48 (at node 260)
Accepted packet rate average = 0.196766
	minimum = 0.15 (at node 1482)
	maximum = 0.476 (at node 260)
Injected flit rate average = 0.373786
	minimum = 0.292 (at node 3815)
	maximum = 0.48 (at node 260)
Accepted flit rate average= 0.196766
	minimum = 0.15 (at node 1482)
	maximum = 0.476 (at node 260)
Injected packet length average = 1
Accepted packet length average = 1
Total in-flight flits = 728372 (0 measured)
latency change    = 1
throughput change = 1
Class 0:
Packet latency average = 549.098
	minimum = 6
	maximum = 1608
Network latency average = 521.216
	minimum = 6
	maximum = 1608
Slowest packet = 682807
Flit latency average = 521.216
	minimum = 6
	maximum = 1608
Slowest flit = 682807
Fragmentation average = 0
	minimum = 0
	maximum = 0
Injected packet rate average = 0.283052
	minimum = 0.2145 (at node 669)
	maximum = 0.4735 (at node 1105)
Accepted packet rate average = 0.199099
	minimum = 0.1425 (at node 2555)
	maximum = 0.4725 (at node 1105)
Injected flit rate average = 0.283052
	minimum = 0.2145 (at node 669)
	maximum = 0.4735 (at node 1105)
Accepted flit rate average= 0.199099
	minimum = 0.1425 (at node 2555)
	maximum = 0.4725 (at node 1105)
Injected packet length average = 1
Accepted packet length average = 1
Total in-flight flits = 691016 (0 measured)
latency change    = 0.49156
throughput change = 0.0117178
Average latency for class 0 exceeded 500 cycles. Aborting simulation.
Too many sample periods needed to converge
Simulation unstable, ending ...
Total run time 265.095
