BEGIN Configuration File: examples/fattree_config_0.20_4_bitcomp
// $Id: dragonflyconfig 3555 2011-05-16 23:37:55Z dub $

// Copyright (c) 2007-2015, Trustees of The Leland Stanford Junior University
// All rights reserved.
//
// Redistribution and use in source and binary forms, with or without
// modification, are permitted provided that the following conditions are met:
//
// Redistributions of source code must retain the above copyright notice, this
// list of conditions and the following disclaimer.
// Redistributions in binary form must reproduce the above copyright notice,
// this list of conditions and the following disclaimer in the documentation
// and/or other materials provided with the distribution.
//
// THIS SOFTWARE IS PROVIDED BY THE COPYRIGHT HOLDERS AND CONTRIBUTORS "AS IS"
// AND ANY EXPRESS OR IMPLIED WARRANTIES, INCLUDING, BUT NOT LIMITED TO, THE
// IMPLIED WARRANTIES OF MERCHANTABILITY AND FITNESS FOR A PARTICULAR PURPOSE
// ARE DISCLAIMED. IN NO EVENT SHALL THE COPYRIGHT OWNER OR CONTRIBUTORS BE
// LIABLE FOR ANY DIRECT, INDIRECT, INCIDENTAL, SPECIAL, EXEMPLARY, OR
// CONSEQUENTIAL DAMAGES (INCLUDING, BUT NOT LIMITED TO, PROCUREMENT OF
// SUBSTITUTE GOODS OR SERVICES; LOSS OF USE, DATA, OR PROFITS; OR BUSINESS
// INTERRUPTION) HOWEVER CAUSED AND ON ANY THEORY OF LIABILITY, WHETHER IN
// CONTRACT, STRICT LIABILITY, OR TORT (INCLUDING NEGLIGENCE OR OTHERWISE)
// ARISING IN ANY WAY OUT OF THE USE OF THIS SOFTWARE, EVEN IF ADVISED OF THE
// POSSIBILITY OF SUCH DAMAGE.


hold_switch_for_packet=1;

vc_buf_size = 16;


wait_for_tail_credit = 0;

//
// Router architecture
//
vc_allocator = separable_input_first; 
sw_allocator = separable_input_first;
alloc_iters  = 1;

credit_delay   = 2;
routing_delay  = 0;
vc_alloc_delay = 1;
sw_alloc_delay = 1;
st_final_delay = 1;

input_speedup     = 1;
output_speedup    = 1;
internal_speedup  = 1.0;


warmup_periods = 3;
sim_count          = 1;

sample_period  = 1000;  

routing_function = nca;
num_vcs     = 4;

priority = none;
traffic = bitcomp;


injection_rate = 0.20;
packet_size = 1;
injection_rate_uses_flits=1;

topology = fattree;

k  = 8;
n  = 4;
t = 4;

watch_file = watchfile.txt;
watch_out=-;
stats_out = examples/fattree_config_0.20_4_bitcomp.m;

END Configuration File: examples/fattree_config_0.20_4_bitcomp
Fat Tree
 k = 8 levels = 4
 each switch - total radix =  16
 # of switches = 2048
 # of channels = 24576
 # of nodes ( size of network ) = 4096
 tapering factor = 4
0 | node15 | Enqueuing flit 1 (packet 1) at time 0.
0 | node34 | Enqueuing flit 2 (packet 2) at time 0.
0 | node47 | Enqueuing flit 3 (packet 3) at time 0.
0 | node53 | Enqueuing flit 4 (packet 4) at time 0.
0 | node54 | Enqueuing flit 5 (packet 5) at time 0.
0 | node62 | Enqueuing flit 6 (packet 6) at time 0.
0 | node66 | Enqueuing flit 7 (packet 7) at time 0.
0 | node71 | Enqueuing flit 8 (packet 8) at time 0.
0 | node77 | Enqueuing flit 9 (packet 9) at time 0.
0 | node78 | Enqueuing flit 10 (packet 10) at time 0.
0 | traffic_manager | Finding output VC for flit 1:
0 | traffic_manager |   Selected output VC 0.
0 | node15 | Generating lookahead routing info for flit 1.
0 | node15 | Injecting flit 1 into subnet 0 at time 0 with priority 0.
0 | traffic_manager | Finding output VC for flit 2:
0 | traffic_manager |   Selected output VC 0.
0 | node34 | Generating lookahead routing info for flit 2.
0 | node34 | Injecting flit 2 into subnet 0 at time 0 with priority 0.
0 | traffic_manager | Finding output VC for flit 3:
0 | traffic_manager |   Selected output VC 0.
0 | node47 | Generating lookahead routing info for flit 3.
0 | node47 | Injecting flit 3 into subnet 0 at time 0 with priority 0.
0 | traffic_manager | Finding output VC for flit 4:
0 | traffic_manager |   Selected output VC 0.
0 | node53 | Generating lookahead routing info for flit 4.
0 | node53 | Injecting flit 4 into subnet 0 at time 0 with priority 0.
0 | traffic_manager | Finding output VC for flit 5:
0 | traffic_manager |   Selected output VC 0.
0 | node54 | Generating lookahead routing info for flit 5.
0 | node54 | Injecting flit 5 into subnet 0 at time 0 with priority 0.
0 | traffic_manager | Finding output VC for flit 6:
0 | traffic_manager |   Selected output VC 0.
0 | node62 | Generating lookahead routing info for flit 6.
0 | node62 | Injecting flit 6 into subnet 0 at time 0 with priority 0.
0 | traffic_manager | Finding output VC for flit 7:
0 | traffic_manager |   Selected output VC 0.
0 | node66 | Generating lookahead routing info for flit 7.
0 | node66 | Injecting flit 7 into subnet 0 at time 0 with priority 0.
0 | traffic_manager | Finding output VC for flit 8:
0 | traffic_manager |   Selected output VC 0.
0 | node71 | Generating lookahead routing info for flit 8.
0 | node71 | Injecting flit 8 into subnet 0 at time 0 with priority 0.
0 | traffic_manager | Finding output VC for flit 9:
0 | traffic_manager |   Selected output VC 0.
0 | node77 | Generating lookahead routing info for flit 9.
0 | node77 | Injecting flit 9 into subnet 0 at time 0 with priority 0.
0 | traffic_manager | Finding output VC for flit 10:
0 | traffic_manager |   Selected output VC 0.
0 | node78 | Generating lookahead routing info for flit 10.
0 | node78 | Injecting flit 10 into subnet 0 at time 0 with priority 0.
1 | network_0/network_0_fchan_ingress15 | Beginning channel traversal for flit 1 with delay 1.
1 | network_0/network_0_fchan_ingress34 | Beginning channel traversal for flit 2 with delay 1.
1 | network_0/network_0_fchan_ingress47 | Beginning channel traversal for flit 3 with delay 1.
1 | network_0/network_0_fchan_ingress53 | Beginning channel traversal for flit 4 with delay 1.
1 | network_0/network_0_fchan_ingress54 | Beginning channel traversal for flit 5 with delay 1.
1 | network_0/network_0_fchan_ingress62 | Beginning channel traversal for flit 6 with delay 1.
1 | network_0/network_0_fchan_ingress66 | Beginning channel traversal for flit 7 with delay 1.
1 | network_0/network_0_fchan_ingress71 | Beginning channel traversal for flit 8 with delay 1.
1 | network_0/network_0_fchan_ingress77 | Beginning channel traversal for flit 9 with delay 1.
1 | network_0/network_0_fchan_ingress78 | Beginning channel traversal for flit 10 with delay 1.
1 | network_0/network_0_fchan_ingress15 | Completed channel traversal for flit 1.
1 | network_0/network_0_fchan_ingress34 | Completed channel traversal for flit 2.
1 | network_0/network_0_fchan_ingress47 | Completed channel traversal for flit 3.
1 | network_0/network_0_fchan_ingress53 | Completed channel traversal for flit 4.
1 | network_0/network_0_fchan_ingress54 | Completed channel traversal for flit 5.
1 | network_0/network_0_fchan_ingress62 | Completed channel traversal for flit 6.
1 | network_0/network_0_fchan_ingress66 | Completed channel traversal for flit 7.
1 | network_0/network_0_fchan_ingress71 | Completed channel traversal for flit 8.
1 | network_0/network_0_fchan_ingress77 | Completed channel traversal for flit 9.
1 | network_0/network_0_fchan_ingress78 | Completed channel traversal for flit 10.
2 | network_0/router_level3_1 | Received flit 1 from channel at input 7.
2 | network_0/router_level3_4 | Received flit 2 from channel at input 2.
2 | network_0/router_level3_5 | Received flit 3 from channel at input 7.
2 | network_0/router_level3_6 | Received flit 4 from channel at input 5.
2 | network_0/router_level3_6 | Received flit 5 from channel at input 6.
2 | network_0/router_level3_7 | Received flit 6 from channel at input 6.
2 | network_0/router_level3_8 | Received flit 7 from channel at input 2.
2 | network_0/router_level3_8 | Received flit 8 from channel at input 7.
2 | network_0/router_level3_9 | Received flit 9 from channel at input 5.
2 | network_0/router_level3_9 | Received flit 10 from channel at input 6.
2 | network_0/router_level3_1 | Adding flit 1 to VC 0 at input 7 (state: idle, empty).
2 | network_0/router_level3_1 | Using precomputed lookahead routing information for VC 0 at input 7 (front: 1).
2 | network_0/router_level3_1/buf_7/vc_0 | Changing state from idle to vc_alloc.
2 | network_0/router_level3_1 | Beginning VC allocation for VC 0 at input 7 (front: 1).
2 | network_0/router_level3_1 |   Requesting VC 0 at output 14 (in_pri: 0, out_pri: 0).
2 | network_0/router_level3_1 |   Requesting VC 1 at output 14 (in_pri: 0, out_pri: 0).
2 | network_0/router_level3_1 |   Requesting VC 2 at output 14 (in_pri: 0, out_pri: 0).
2 | network_0/router_level3_1 |   Requesting VC 3 at output 14 (in_pri: 0, out_pri: 0).
2 | network_0/router_level3_1/vc_allocator | Input requests = [ 20 -> [ 48@0 49@0 50@0 51@0 ]  28 -> [ 56@0 57@0 58@0 59@0 ]  ], output requests = [ 48 -> [ 20@0 ]  49 -> [ 20@0 ]  50 -> [ 20@0 ]  51 -> [ 20@0 ]  56 -> [ 28@0 ]  57 -> [ 28@0 ]  58 -> [ 28@0 ]  59 -> [ 28@0 ]  ].
2 | network_0/router_level3_1/vc_allocator | Input grants = [ 20 -> 48  28 -> 56  ], output grants = [ 48 -> 20  56 -> 28  ].
2 | network_0/router_level3_1 | Assigning VC 0 at output 14 to VC 0 at input 7.
2 | network_0/router_level3_1 | Completed VC allocation for VC 0 at input 7 (front: 1).
2 | network_0/router_level3_1 |   Acquiring assigned VC 0 at output 14.
2 | network_0/router_level3_1/buf_7/vc_0 | Changing state from vc_alloc to active.
2 | network_0/router_level3_4 | Adding flit 2 to VC 0 at input 2 (state: idle, empty).
2 | network_0/router_level3_4 | Using precomputed lookahead routing information for VC 0 at input 2 (front: 2).
2 | network_0/router_level3_4/buf_2/vc_0 | Changing state from idle to vc_alloc.
2 | network_0/router_level3_4 | Beginning VC allocation for VC 0 at input 2 (front: 2).
2 | network_0/router_level3_4 |   Requesting VC 0 at output 12 (in_pri: 0, out_pri: 0).
2 | network_0/router_level3_4 |   Requesting VC 1 at output 12 (in_pri: 0, out_pri: 0).
2 | network_0/router_level3_4 |   Requesting VC 2 at output 12 (in_pri: 0, out_pri: 0).
2 | network_0/router_level3_4 |   Requesting VC 3 at output 12 (in_pri: 0, out_pri: 0).
2 | network_0/router_level3_4/vc_allocator | Input requests = [ 8 -> [ 48@0 49@0 50@0 51@0 ]  ], output requests = [ 48 -> [ 8@0 ]  49 -> [ 8@0 ]  50 -> [ 8@0 ]  51 -> [ 8@0 ]  ].
2 | network_0/router_level3_4/vc_allocator | Input grants = [ 8 -> 48  ], output grants = [ 48 -> 8  ].
2 | network_0/router_level3_4 | Assigning VC 0 at output 12 to VC 0 at input 2.
2 | network_0/router_level3_4 | Completed VC allocation for VC 0 at input 2 (front: 2).
2 | network_0/router_level3_4 |   Acquiring assigned VC 0 at output 12.
2 | network_0/router_level3_4/buf_2/vc_0 | Changing state from vc_alloc to active.
2 | network_0/router_level3_5 | Adding flit 3 to VC 0 at input 7 (state: idle, empty).
2 | network_0/router_level3_5 | Using precomputed lookahead routing information for VC 0 at input 7 (front: 3).
2 | network_0/router_level3_5/buf_7/vc_0 | Changing state from idle to vc_alloc.
2 | network_0/router_level3_5 | Beginning VC allocation for VC 0 at input 7 (front: 3).
2 | network_0/router_level3_5 |   Requesting VC 0 at output 11 (in_pri: 0, out_pri: 0).
2 | network_0/router_level3_5 |   Requesting VC 1 at output 11 (in_pri: 0, out_pri: 0).
2 | network_0/router_level3_5 |   Requesting VC 2 at output 11 (in_pri: 0, out_pri: 0).
2 | network_0/router_level3_5 |   Requesting VC 3 at output 11 (in_pri: 0, out_pri: 0).
2 | network_0/router_level3_5/vc_allocator | Input requests = [ 28 -> [ 44@0 45@0 46@0 47@0 ]  ], output requests = [ 44 -> [ 28@0 ]  45 -> [ 28@0 ]  46 -> [ 28@0 ]  47 -> [ 28@0 ]  ].
2 | network_0/router_level3_5/vc_allocator | Input grants = [ 28 -> 44  ], output grants = [ 44 -> 28  ].
2 | network_0/router_level3_5 | Assigning VC 0 at output 11 to VC 0 at input 7.
2 | network_0/router_level3_5 | Completed VC allocation for VC 0 at input 7 (front: 3).
2 | network_0/router_level3_5 |   Acquiring assigned VC 0 at output 11.
2 | network_0/router_level3_5/buf_7/vc_0 | Changing state from vc_alloc to active.
2 | network_0/router_level3_6 | Adding flit 4 to VC 0 at input 5 (state: idle, empty).
2 | network_0/router_level3_6 | Using precomputed lookahead routing information for VC 0 at input 5 (front: 4).
2 | network_0/router_level3_6/buf_5/vc_0 | Changing state from idle to vc_alloc.
2 | network_0/router_level3_6 | Adding flit 5 to VC 0 at input 6 (state: idle, empty).
2 | network_0/router_level3_6 | Using precomputed lookahead routing information for VC 0 at input 6 (front: 5).
2 | network_0/router_level3_6/buf_6/vc_0 | Changing state from idle to vc_alloc.
2 | network_0/router_level3_6 | Beginning VC allocation for VC 0 at input 5 (front: 4).
2 | network_0/router_level3_6 |   Requesting VC 0 at output 11 (in_pri: 0, out_pri: 0).
2 | network_0/router_level3_6 |   Requesting VC 1 at output 11 (in_pri: 0, out_pri: 0).
2 | network_0/router_level3_6 |   Requesting VC 2 at output 11 (in_pri: 0, out_pri: 0).
2 | network_0/router_level3_6 |   Requesting VC 3 at output 11 (in_pri: 0, out_pri: 0).
2 | network_0/router_level3_6 | Beginning VC allocation for VC 0 at input 6 (front: 5).
2 | network_0/router_level3_6 |   Requesting VC 0 at output 13 (in_pri: 0, out_pri: 0).
2 | network_0/router_level3_6 |   Requesting VC 1 at output 13 (in_pri: 0, out_pri: 0).
2 | network_0/router_level3_6 |   Requesting VC 2 at output 13 (in_pri: 0, out_pri: 0).
2 | network_0/router_level3_6 |   Requesting VC 3 at output 13 (in_pri: 0, out_pri: 0).
2 | network_0/router_level3_6/vc_allocator | Input requests = [ 20 -> [ 44@0 45@0 46@0 47@0 ]  24 -> [ 52@0 53@0 54@0 55@0 ]  ], output requests = [ 44 -> [ 20@0 ]  45 -> [ 20@0 ]  46 -> [ 20@0 ]  47 -> [ 20@0 ]  52 -> [ 24@0 ]  53 -> [ 24@0 ]  54 -> [ 24@0 ]  55 -> [ 24@0 ]  ].
2 | network_0/router_level3_6/vc_allocator | Input grants = [ 20 -> 44  24 -> 52  ], output grants = [ 44 -> 20  52 -> 24  ].
2 | network_0/router_level3_6 | Assigning VC 0 at output 11 to VC 0 at input 5.
2 | network_0/router_level3_6 | Assigning VC 0 at output 13 to VC 0 at input 6.
2 | network_0/router_level3_6 | Completed VC allocation for VC 0 at input 5 (front: 4).
2 | network_0/router_level3_6 |   Acquiring assigned VC 0 at output 11.
2 | network_0/router_level3_6/buf_5/vc_0 | Changing state from vc_alloc to active.
2 | network_0/router_level3_6 | Completed VC allocation for VC 0 at input 6 (front: 5).
2 | network_0/router_level3_6 |   Acquiring assigned VC 0 at output 13.
2 | network_0/router_level3_6/buf_6/vc_0 | Changing state from vc_alloc to active.
2 | network_0/router_level3_7 | Adding flit 6 to VC 0 at input 6 (state: idle, empty).
2 | network_0/router_level3_7 | Using precomputed lookahead routing information for VC 0 at input 6 (front: 6).
2 | network_0/router_level3_7/buf_6/vc_0 | Changing state from idle to vc_alloc.
2 | network_0/router_level3_7 | Beginning VC allocation for VC 0 at input 6 (front: 6).
2 | network_0/router_level3_7 |   Requesting VC 0 at output 9 (in_pri: 0, out_pri: 0).
2 | network_0/router_level3_7 |   Requesting VC 1 at output 9 (in_pri: 0, out_pri: 0).
2 | network_0/router_level3_7 |   Requesting VC 2 at output 9 (in_pri: 0, out_pri: 0).
2 | network_0/router_level3_7 |   Requesting VC 3 at output 9 (in_pri: 0, out_pri: 0).
2 | network_0/router_level3_7/vc_allocator | Input requests = [ 24 -> [ 36@0 37@0 38@0 39@0 ]  ], output requests = [ 36 -> [ 24@0 ]  37 -> [ 24@0 ]  38 -> [ 24@0 ]  39 -> [ 24@0 ]  ].
2 | network_0/router_level3_7/vc_allocator | Input grants = [ 24 -> 36  ], output grants = [ 36 -> 24  ].
2 | network_0/router_level3_7 | Assigning VC 0 at output 9 to VC 0 at input 6.
2 | network_0/router_level3_7 | Completed VC allocation for VC 0 at input 6 (front: 6).
2 | network_0/router_level3_7 |   Acquiring assigned VC 0 at output 9.
2 | network_0/router_level3_7/buf_6/vc_0 | Changing state from vc_alloc to active.
2 | network_0/router_level3_8 | Adding flit 7 to VC 0 at input 2 (state: idle, empty).
2 | network_0/router_level3_8 | Using precomputed lookahead routing information for VC 0 at input 2 (front: 7).
2 | network_0/router_level3_8/buf_2/vc_0 | Changing state from idle to vc_alloc.
2 | network_0/router_level3_8 | Adding flit 8 to VC 0 at input 7 (state: idle, empty).
2 | network_0/router_level3_8 | Using precomputed lookahead routing information for VC 0 at input 7 (front: 8).
2 | network_0/router_level3_8/buf_7/vc_0 | Changing state from idle to vc_alloc.
2 | network_0/router_level3_8 | Beginning VC allocation for VC 0 at input 2 (front: 7).
2 | network_0/router_level3_8 |   Requesting VC 0 at output 11 (in_pri: 0, out_pri: 0).
2 | network_0/router_level3_8 |   Requesting VC 1 at output 11 (in_pri: 0, out_pri: 0).
2 | network_0/router_level3_8 |   Requesting VC 2 at output 11 (in_pri: 0, out_pri: 0).
2 | network_0/router_level3_8 |   Requesting VC 3 at output 11 (in_pri: 0, out_pri: 0).
2 | network_0/router_level3_8 | Beginning VC allocation for VC 0 at input 7 (front: 8).
2 | network_0/router_level3_8 |   Requesting VC 0 at output 9 (in_pri: 0, out_pri: 0).
2 | network_0/router_level3_8 |   Requesting VC 1 at output 9 (in_pri: 0, out_pri: 0).
2 | network_0/router_level3_8 |   Requesting VC 2 at output 9 (in_pri: 0, out_pri: 0).
2 | network_0/router_level3_8 |   Requesting VC 3 at output 9 (in_pri: 0, out_pri: 0).
2 | network_0/router_level3_8/vc_allocator | Input requests = [ 8 -> [ 44@0 45@0 46@0 47@0 ]  28 -> [ 36@0 37@0 38@0 39@0 ]  ], output requests = [ 36 -> [ 28@0 ]  37 -> [ 28@0 ]  38 -> [ 28@0 ]  39 -> [ 28@0 ]  44 -> [ 8@0 ]  45 -> [ 8@0 ]  46 -> [ 8@0 ]  47 -> [ 8@0 ]  ].
2 | network_0/router_level3_8/vc_allocator | Input grants = [ 8 -> 44  28 -> 36  ], output grants = [ 36 -> 28  44 -> 8  ].
2 | network_0/router_level3_8 | Assigning VC 0 at output 11 to VC 0 at input 2.
2 | network_0/router_level3_8 | Assigning VC 0 at output 9 to VC 0 at input 7.
2 | network_0/router_level3_8 | Completed VC allocation for VC 0 at input 2 (front: 7).
2 | network_0/router_level3_8 |   Acquiring assigned VC 0 at output 11.
2 | network_0/router_level3_8/buf_2/vc_0 | Changing state from vc_alloc to active.
2 | network_0/router_level3_8 | Completed VC allocation for VC 0 at input 7 (front: 8).
2 | network_0/router_level3_8 |   Acquiring assigned VC 0 at output 9.
2 | network_0/router_level3_8/buf_7/vc_0 | Changing state from vc_alloc to active.
2 | network_0/router_level3_9 | Adding flit 9 to VC 0 at input 5 (state: idle, empty).
2 | network_0/router_level3_9 | Using precomputed lookahead routing information for VC 0 at input 5 (front: 9).
2 | network_0/router_level3_9/buf_5/vc_0 | Changing state from idle to vc_alloc.
2 | network_0/router_level3_9 | Adding flit 10 to VC 0 at input 6 (state: idle, empty).
2 | network_0/router_level3_9 | Using precomputed lookahead routing information for VC 0 at input 6 (front: 10).
2 | network_0/router_level3_9/buf_6/vc_0 | Changing state from idle to vc_alloc.
2 | network_0/router_level3_9 | Beginning VC allocation for VC 0 at input 5 (front: 9).
2 | network_0/router_level3_9 |   Requesting VC 0 at output 13 (in_pri: 0, out_pri: 0).
2 | network_0/router_level3_9 |   Requesting VC 1 at output 13 (in_pri: 0, out_pri: 0).
2 | network_0/router_level3_9 |   Requesting VC 2 at output 13 (in_pri: 0, out_pri: 0).
2 | network_0/router_level3_9 |   Requesting VC 3 at output 13 (in_pri: 0, out_pri: 0).
2 | network_0/router_level3_9 | Beginning VC allocation for VC 0 at input 6 (front: 10).
2 | network_0/router_level3_9 |   Requesting VC 0 at output 15 (in_pri: 0, out_pri: 0).
2 | network_0/router_level3_9 |   Requesting VC 1 at output 15 (in_pri: 0, out_pri: 0).
2 | network_0/router_level3_9 |   Requesting VC 2 at output 15 (in_pri: 0, out_pri: 0).
2 | network_0/router_level3_9 |   Requesting VC 3 at output 15 (in_pri: 0, out_pri: 0).
2 | network_0/router_level3_9/vc_allocator | Input requests = [ 20 -> [ 52@0 53@0 54@0 55@0 ]  24 -> [ 60@0 61@0 62@0 63@0 ]  28 -> [ 56@0 57@0 58@0 59@0 ]  ], output requests = [ 52 -> [ 20@0 ]  53 -> [ 20@0 ]  54 -> [ 20@0 ]  55 -> [ 20@0 ]  56 -> [ 28@0 ]  57 -> [ 28@0 ]  58 -> [ 28@0 ]  59 -> [ 28@0 ]  60 -> [ 24@0 ]  61 -> [ 24@0 ]  62 -> [ 24@0 ]  63 -> [ 24@0 ]  ].
2 | network_0/router_level3_9/vc_allocator | Input grants = [ 20 -> 52  24 -> 60  28 -> 56  ], output grants = [ 52 -> 20  56 -> 28  60 -> 24  ].
2 | network_0/router_level3_9 | Assigning VC 0 at output 13 to VC 0 at input 5.
2 | network_0/router_level3_9 | Assigning VC 0 at output 15 to VC 0 at input 6.
2 | network_0/router_level3_9 | Completed VC allocation for VC 0 at input 5 (front: 9).
2 | network_0/router_level3_9 |   Acquiring assigned VC 0 at output 13.
2 | network_0/router_level3_9/buf_5/vc_0 | Changing state from vc_alloc to active.
2 | network_0/router_level3_9 | Completed VC allocation for VC 0 at input 6 (front: 10).
2 | network_0/router_level3_9 |   Acquiring assigned VC 0 at output 15.
2 | network_0/router_level3_9/buf_6/vc_0 | Changing state from vc_alloc to active.
3 | network_0/router_level3_1 | Beginning switch allocation for VC 0 at input 7 (front: 1).
3 | network_0/router_level3_1 |   Requesting output 14.0 (non-spec, pri: 0).
3 | network_0/router_level3_1/sw_allocator | Input requests = [ 5 -> [ 12@0 ]  7 -> [ 14@0 ]  ], output requests = [ 12 -> [ 5@0 ]  14 -> [ 7@0 ]  ].
3 | network_0/router_level3_1/sw_allocator | Input grants = [ 5 -> 12  7 -> 14  ], output grants = [ 12 -> 5  14 -> 7  ].
3 | network_0/router_level3_1 | Assigning output 14.0 to VC 0 at input 7.0.
3 | network_0/router_level3_1 | Completed switch allocation for VC 0 at input 7 (front: 1).
3 | network_0/router_level3_1 |   Scheduling switch connection from input 7.0 to output 14.0.
3 | network_0/router_level3_1 | Updating lookahead routing information for flit 1.
3 | network_0/router_level3_4 | Beginning switch allocation for VC 0 at input 2 (front: 2).
3 | network_0/router_level3_4 |   Requesting output 12.0 (non-spec, pri: 0).
3 | network_0/router_level3_4/sw_allocator | Input requests = [ 2 -> [ 12@0 ]  ], output requests = [ 12 -> [ 2@0 ]  ].
3 | network_0/router_level3_4/sw_allocator | Input grants = [ 2 -> 12  ], output grants = [ 12 -> 2  ].
3 | network_0/router_level3_4 | Assigning output 12.0 to VC 0 at input 2.0.
3 | network_0/router_level3_4 | Completed switch allocation for VC 0 at input 2 (front: 2).
3 | network_0/router_level3_4 |   Scheduling switch connection from input 2.0 to output 12.0.
3 | network_0/router_level3_4 | Updating lookahead routing information for flit 2.
3 | network_0/router_level3_5 | Beginning switch allocation for VC 0 at input 7 (front: 3).
3 | network_0/router_level3_5 |   Requesting output 11.0 (non-spec, pri: 0).
3 | network_0/router_level3_5/sw_allocator | Input requests = [ 7 -> [ 11@0 ]  ], output requests = [ 11 -> [ 7@0 ]  ].
3 | network_0/router_level3_5/sw_allocator | Input grants = [ 7 -> 11  ], output grants = [ 11 -> 7  ].
3 | network_0/router_level3_5 | Assigning output 11.0 to VC 0 at input 7.0.
3 | network_0/router_level3_5 | Completed switch allocation for VC 0 at input 7 (front: 3).
3 | network_0/router_level3_5 |   Scheduling switch connection from input 7.0 to output 11.0.
3 | network_0/router_level3_5 | Updating lookahead routing information for flit 3.
3 | network_0/router_level3_6 | Beginning switch allocation for VC 0 at input 5 (front: 4).
3 | network_0/router_level3_6 |   Requesting output 11.0 (non-spec, pri: 0).
3 | network_0/router_level3_6 | Beginning switch allocation for VC 0 at input 6 (front: 5).
3 | network_0/router_level3_6 |   Requesting output 13.0 (non-spec, pri: 0).
3 | network_0/router_level3_6/sw_allocator | Input requests = [ 5 -> [ 11@0 ]  6 -> [ 13@0 ]  ], output requests = [ 11 -> [ 5@0 ]  13 -> [ 6@0 ]  ].
3 | network_0/router_level3_6/sw_allocator | Input grants = [ 5 -> 11  6 -> 13  ], output grants = [ 11 -> 5  13 -> 6  ].
3 | network_0/router_level3_6 | Assigning output 11.0 to VC 0 at input 5.0.
3 | network_0/router_level3_6 | Assigning output 13.0 to VC 0 at input 6.0.
3 | network_0/router_level3_6 | Completed switch allocation for VC 0 at input 5 (front: 4).
3 | network_0/router_level3_6 |   Scheduling switch connection from input 5.0 to output 11.0.
3 | network_0/router_level3_6 | Updating lookahead routing information for flit 4.
3 | network_0/router_level3_6 | Completed switch allocation for VC 0 at input 6 (front: 5).
3 | network_0/router_level3_6 |   Scheduling switch connection from input 6.0 to output 13.0.
3 | network_0/router_level3_6 | Updating lookahead routing information for flit 5.
3 | network_0/router_level3_7 | Beginning switch allocation for VC 0 at input 6 (front: 6).
3 | network_0/router_level3_7 |   Requesting output 9.0 (non-spec, pri: 0).
3 | network_0/router_level3_7/sw_allocator | Input requests = [ 6 -> [ 9@0 ]  ], output requests = [ 9 -> [ 6@0 ]  ].
3 | network_0/router_level3_7/sw_allocator | Input grants = [ 6 -> 9  ], output grants = [ 9 -> 6  ].
3 | network_0/router_level3_7 | Assigning output 9.0 to VC 0 at input 6.0.
3 | network_0/router_level3_7 | Completed switch allocation for VC 0 at input 6 (front: 6).
3 | network_0/router_level3_7 |   Scheduling switch connection from input 6.0 to output 9.0.
3 | network_0/router_level3_7 | Updating lookahead routing information for flit 6.
3 | network_0/router_level3_8 | Beginning switch allocation for VC 0 at input 2 (front: 7).
3 | network_0/router_level3_8 |   Requesting output 11.0 (non-spec, pri: 0).
3 | network_0/router_level3_8 | Beginning switch allocation for VC 0 at input 7 (front: 8).
3 | network_0/router_level3_8 |   Requesting output 9.0 (non-spec, pri: 0).
3 | network_0/router_level3_8/sw_allocator | Input requests = [ 2 -> [ 11@0 ]  7 -> [ 9@0 ]  ], output requests = [ 9 -> [ 7@0 ]  11 -> [ 2@0 ]  ].
3 | network_0/router_level3_8/sw_allocator | Input grants = [ 2 -> 11  7 -> 9  ], output grants = [ 9 -> 7  11 -> 2  ].
3 | network_0/router_level3_8 | Assigning output 11.0 to VC 0 at input 2.0.
3 | network_0/router_level3_8 | Assigning output 9.0 to VC 0 at input 7.0.
3 | network_0/router_level3_8 | Completed switch allocation for VC 0 at input 2 (front: 7).
3 | network_0/router_level3_8 |   Scheduling switch connection from input 2.0 to output 11.0.
3 | network_0/router_level3_8 | Updating lookahead routing information for flit 7.
3 | network_0/router_level3_8 | Completed switch allocation for VC 0 at input 7 (front: 8).
3 | network_0/router_level3_8 |   Scheduling switch connection from input 7.0 to output 9.0.
3 | network_0/router_level3_8 | Updating lookahead routing information for flit 8.
3 | network_0/router_level3_9 | Beginning switch allocation for VC 0 at input 5 (front: 9).
3 | network_0/router_level3_9 |   Requesting output 13.0 (non-spec, pri: 0).
3 | network_0/router_level3_9 | Beginning switch allocation for VC 0 at input 6 (front: 10).
3 | network_0/router_level3_9 |   Requesting output 15.0 (non-spec, pri: 0).
3 | network_0/router_level3_9/sw_allocator | Input requests = [ 5 -> [ 13@0 ]  6 -> [ 15@0 ]  7 -> [ 14@0 ]  ], output requests = [ 13 -> [ 5@0 ]  14 -> [ 7@0 ]  15 -> [ 6@0 ]  ].
3 | network_0/router_level3_9/sw_allocator | Input grants = [ 5 -> 13  6 -> 15  7 -> 14  ], output grants = [ 13 -> 5  14 -> 7  15 -> 6  ].
3 | network_0/router_level3_9 | Assigning output 13.0 to VC 0 at input 5.0.
3 | network_0/router_level3_9 | Assigning output 15.0 to VC 0 at input 6.0.
3 | network_0/router_level3_9 | Completed switch allocation for VC 0 at input 5 (front: 9).
3 | network_0/router_level3_9 |   Scheduling switch connection from input 5.0 to output 13.0.
3 | network_0/router_level3_9 | Updating lookahead routing information for flit 9.
3 | network_0/router_level3_9 | Completed switch allocation for VC 0 at input 6 (front: 10).
3 | network_0/router_level3_9 |   Scheduling switch connection from input 6.0 to output 15.0.
3 | network_0/router_level3_9 | Updating lookahead routing information for flit 10.
4 | network_0/router_level3_1 | Beginning crossbar traversal for flit 1 from input 7.0 to output 14.0.
4 | network_0/router_level3_1 | Completed crossbar traversal for flit 1 from input 7.0 to output 14.0.
4 | network_0/router_level3_1 | Buffering flit 1 at output 14.
4 | network_0/router_level3_4 | Beginning crossbar traversal for flit 2 from input 2.0 to output 12.0.
4 | network_0/router_level3_4 | Completed crossbar traversal for flit 2 from input 2.0 to output 12.0.
4 | network_0/router_level3_4 | Buffering flit 2 at output 12.
4 | network_0/router_level3_5 | Beginning crossbar traversal for flit 3 from input 7.0 to output 11.0.
4 | network_0/router_level3_5 | Completed crossbar traversal for flit 3 from input 7.0 to output 11.0.
4 | network_0/router_level3_5 | Buffering flit 3 at output 11.
4 | network_0/router_level3_6 | Beginning crossbar traversal for flit 4 from input 5.0 to output 11.0.
4 | network_0/router_level3_6 | Beginning crossbar traversal for flit 5 from input 6.0 to output 13.0.
4 | network_0/router_level3_6 | Completed crossbar traversal for flit 4 from input 5.0 to output 11.0.
4 | network_0/router_level3_6 | Buffering flit 4 at output 11.
4 | network_0/router_level3_6 | Completed crossbar traversal for flit 5 from input 6.0 to output 13.0.
4 | network_0/router_level3_6 | Buffering flit 5 at output 13.
4 | network_0/router_level3_7 | Beginning crossbar traversal for flit 6 from input 6.0 to output 9.0.
4 | network_0/router_level3_7 | Completed crossbar traversal for flit 6 from input 6.0 to output 9.0.
4 | network_0/router_level3_7 | Buffering flit 6 at output 9.
4 | network_0/router_level3_8 | Beginning crossbar traversal for flit 7 from input 2.0 to output 11.0.
4 | network_0/router_level3_8 | Beginning crossbar traversal for flit 8 from input 7.0 to output 9.0.
4 | network_0/router_level3_8 | Completed crossbar traversal for flit 7 from input 2.0 to output 11.0.
4 | network_0/router_level3_8 | Buffering flit 7 at output 11.
4 | network_0/router_level3_8 | Completed crossbar traversal for flit 8 from input 7.0 to output 9.0.
4 | network_0/router_level3_8 | Buffering flit 8 at output 9.
4 | network_0/router_level3_9 | Beginning crossbar traversal for flit 9 from input 5.0 to output 13.0.
4 | network_0/router_level3_9 | Beginning crossbar traversal for flit 10 from input 6.0 to output 15.0.
4 | network_0/router_level3_9 | Completed crossbar traversal for flit 9 from input 5.0 to output 13.0.
4 | network_0/router_level3_9 | Buffering flit 9 at output 13.
4 | network_0/router_level3_9 | Completed crossbar traversal for flit 10 from input 6.0 to output 15.0.
4 | network_0/router_level3_9 | Buffering flit 10 at output 15.
4 | network_0/router_level3_1 | Sending flit 1 to channel at output 14.
4 | network_0/router_level3_4 | Sending flit 2 to channel at output 12.
4 | network_0/router_level3_5 | Sending flit 3 to channel at output 11.
4 | network_0/router_level3_6 | Sending flit 4 to channel at output 11.
4 | network_0/router_level3_6 | Sending flit 5 to channel at output 13.
4 | network_0/router_level3_7 | Sending flit 6 to channel at output 9.
4 | network_0/router_level3_8 | Sending flit 8 to channel at output 9.
4 | network_0/router_level3_8 | Sending flit 7 to channel at output 11.
4 | network_0/router_level3_9 | Sending flit 9 to channel at output 13.
4 | network_0/router_level3_9 | Sending flit 10 to channel at output 15.
5 | network_0/network_0_fchan_20494 | Beginning channel traversal for flit 1 with delay 1.
5 | network_0/network_0_fchan_20516 | Beginning channel traversal for flit 2 with delay 1.
5 | network_0/network_0_fchan_20523 | Beginning channel traversal for flit 3 with delay 1.
5 | network_0/network_0_fchan_20531 | Beginning channel traversal for flit 4 with delay 1.
5 | network_0/network_0_fchan_20533 | Beginning channel traversal for flit 5 with delay 1.
5 | network_0/network_0_fchan_20537 | Beginning channel traversal for flit 6 with delay 1.
5 | network_0/network_0_fchan_20545 | Beginning channel traversal for flit 8 with delay 1.
5 | network_0/network_0_fchan_20547 | Beginning channel traversal for flit 7 with delay 1.
5 | network_0/network_0_fchan_20557 | Beginning channel traversal for flit 9 with delay 1.
5 | network_0/network_0_fchan_20559 | Beginning channel traversal for flit 10 with delay 1.
5 | network_0/network_0_fchan_20494 | Completed channel traversal for flit 1.
5 | network_0/network_0_fchan_20516 | Completed channel traversal for flit 2.
5 | network_0/network_0_fchan_20523 | Completed channel traversal for flit 3.
5 | network_0/network_0_fchan_20531 | Completed channel traversal for flit 4.
5 | network_0/network_0_fchan_20533 | Completed channel traversal for flit 5.
5 | network_0/network_0_fchan_20537 | Completed channel traversal for flit 6.
5 | network_0/network_0_fchan_20545 | Completed channel traversal for flit 8.
5 | network_0/network_0_fchan_20547 | Completed channel traversal for flit 7.
5 | network_0/network_0_fchan_20557 | Completed channel traversal for flit 9.
5 | network_0/network_0_fchan_20559 | Completed channel traversal for flit 10.
6 | network_0/router_level2_1 | Received flit 6 from channel at input 7.
6 | network_0/router_level2_3 | Received flit 3 from channel at input 5.
6 | network_0/router_level2_3 | Received flit 4 from channel at input 6.
6 | network_0/router_level2_4 | Received flit 2 from channel at input 4.
6 | network_0/router_level2_5 | Received flit 5 from channel at input 6.
6 | network_0/router_level2_6 | Received flit 1 from channel at input 1.
6 | network_0/router_level2_9 | Received flit 8 from channel at input 0.
6 | network_0/router_level2_11 | Received flit 7 from channel at input 0.
6 | network_0/router_level2_13 | Received flit 9 from channel at input 1.
6 | network_0/router_level2_15 | Received flit 10 from channel at input 1.
6 | network_0/router_level2_1 | Adding flit 6 to VC 0 at input 7 (state: idle, empty).
6 | network_0/router_level2_1 | Using precomputed lookahead routing information for VC 0 at input 7 (front: 6).
6 | network_0/router_level2_1/buf_7/vc_0 | Changing state from idle to vc_alloc.
6 | network_0/router_level2_1 | Beginning VC allocation for VC 0 at input 7 (front: 6).
6 | network_0/router_level2_1 |   Requesting VC 0 at output 8 (in_pri: 0, out_pri: 0).
6 | network_0/router_level2_1 |   Requesting VC 1 at output 8 (in_pri: 0, out_pri: 0).
6 | network_0/router_level2_1 |   Requesting VC 2 at output 8 (in_pri: 0, out_pri: 0).
6 | network_0/router_level2_1 |   Requesting VC 3 at output 8 (in_pri: 0, out_pri: 0).
6 | network_0/router_level2_1/vc_allocator | Input requests = [ 28 -> [ 32@0 33@0 34@0 35@0 ]  ], output requests = [ 32 -> [ 28@0 ]  33 -> [ 28@0 ]  34 -> [ 28@0 ]  35 -> [ 28@0 ]  ].
6 | network_0/router_level2_1/vc_allocator | Input grants = [ 28 -> 32  ], output grants = [ 32 -> 28  ].
6 | network_0/router_level2_1 | Assigning VC 0 at output 8 to VC 0 at input 7.
6 | network_0/router_level2_1 | Completed VC allocation for VC 0 at input 7 (front: 6).
6 | network_0/router_level2_1 |   Acquiring assigned VC 0 at output 8.
6 | network_0/router_level2_1/buf_7/vc_0 | Changing state from vc_alloc to active.
6 | network_0/router_level2_3 | Adding flit 3 to VC 0 at input 5 (state: idle, empty).
6 | network_0/router_level2_3 | Using precomputed lookahead routing information for VC 0 at input 5 (front: 3).
6 | network_0/router_level2_3/buf_5/vc_0 | Changing state from idle to vc_alloc.
6 | network_0/router_level2_3 | Adding flit 4 to VC 0 at input 6 (state: idle, empty).
6 | network_0/router_level2_3 | Using precomputed lookahead routing information for VC 0 at input 6 (front: 4).
6 | network_0/router_level2_3/buf_6/vc_0 | Changing state from idle to vc_alloc.
6 | network_0/router_level2_3 | Beginning VC allocation for VC 0 at input 5 (front: 3).
6 | network_0/router_level2_3 |   Requesting VC 0 at output 12 (in_pri: 0, out_pri: 0).
6 | network_0/router_level2_3 |   Requesting VC 1 at output 12 (in_pri: 0, out_pri: 0).
6 | network_0/router_level2_3 |   Requesting VC 2 at output 12 (in_pri: 0, out_pri: 0).
6 | network_0/router_level2_3 |   Requesting VC 3 at output 12 (in_pri: 0, out_pri: 0).
6 | network_0/router_level2_3 | Beginning VC allocation for VC 0 at input 6 (front: 4).
6 | network_0/router_level2_3 |   Requesting VC 0 at output 8 (in_pri: 0, out_pri: 0).
6 | network_0/router_level2_3 |   Requesting VC 1 at output 8 (in_pri: 0, out_pri: 0).
6 | network_0/router_level2_3 |   Requesting VC 2 at output 8 (in_pri: 0, out_pri: 0).
6 | network_0/router_level2_3 |   Requesting VC 3 at output 8 (in_pri: 0, out_pri: 0).
6 | network_0/router_level2_3/vc_allocator | Input requests = [ 20 -> [ 48@0 49@0 50@0 51@0 ]  24 -> [ 32@0 33@0 34@0 35@0 ]  ], output requests = [ 32 -> [ 24@0 ]  33 -> [ 24@0 ]  34 -> [ 24@0 ]  35 -> [ 24@0 ]  48 -> [ 20@0 ]  49 -> [ 20@0 ]  50 -> [ 20@0 ]  51 -> [ 20@0 ]  ].
6 | network_0/router_level2_3/vc_allocator | Input grants = [ 20 -> 48  24 -> 32  ], output grants = [ 32 -> 24  48 -> 20  ].
6 | network_0/router_level2_3 | Assigning VC 0 at output 12 to VC 0 at input 5.
6 | network_0/router_level2_3 | Assigning VC 0 at output 8 to VC 0 at input 6.
6 | network_0/router_level2_3 | Completed VC allocation for VC 0 at input 5 (front: 3).
6 | network_0/router_level2_3 |   Acquiring assigned VC 0 at output 12.
6 | network_0/router_level2_3/buf_5/vc_0 | Changing state from vc_alloc to active.
6 | network_0/router_level2_3 | Completed VC allocation for VC 0 at input 6 (front: 4).
6 | network_0/router_level2_3 |   Acquiring assigned VC 0 at output 8.
6 | network_0/router_level2_3/buf_6/vc_0 | Changing state from vc_alloc to active.
6 | network_0/router_level2_4 | Adding flit 2 to VC 0 at input 4 (state: idle, empty).
6 | network_0/router_level2_4 | Using precomputed lookahead routing information for VC 0 at input 4 (front: 2).
6 | network_0/router_level2_4/buf_4/vc_0 | Changing state from idle to vc_alloc.
6 | network_0/router_level2_4 | Beginning VC allocation for VC 0 at input 4 (front: 2).
6 | network_0/router_level2_4 |   Requesting VC 0 at output 11 (in_pri: 0, out_pri: 0).
6 | network_0/router_level2_4 |   Requesting VC 1 at output 11 (in_pri: 0, out_pri: 0).
6 | network_0/router_level2_4 |   Requesting VC 2 at output 11 (in_pri: 0, out_pri: 0).
6 | network_0/router_level2_4 |   Requesting VC 3 at output 11 (in_pri: 0, out_pri: 0).
6 | network_0/router_level2_4/vc_allocator | Input requests = [ 4 -> [ 40@0 41@0 42@0 43@0 ]  16 -> [ 44@0 45@0 46@0 47@0 ]  ], output requests = [ 40 -> [ 4@0 ]  41 -> [ 4@0 ]  42 -> [ 4@0 ]  43 -> [ 4@0 ]  44 -> [ 16@0 ]  45 -> [ 16@0 ]  46 -> [ 16@0 ]  47 -> [ 16@0 ]  ].
6 | network_0/router_level2_4/vc_allocator | Input grants = [ 4 -> 40  16 -> 44  ], output grants = [ 40 -> 4  44 -> 16  ].
6 | network_0/router_level2_4 | Assigning VC 0 at output 11 to VC 0 at input 4.
6 | network_0/router_level2_4 | Completed VC allocation for VC 0 at input 4 (front: 2).
6 | network_0/router_level2_4 |   Acquiring assigned VC 0 at output 11.
6 | network_0/router_level2_4/buf_4/vc_0 | Changing state from vc_alloc to active.
6 | network_0/router_level2_5 | Adding flit 5 to VC 0 at input 6 (state: idle, empty).
6 | network_0/router_level2_5 | Using precomputed lookahead routing information for VC 0 at input 6 (front: 5).
6 | network_0/router_level2_5/buf_6/vc_0 | Changing state from idle to vc_alloc.
6 | network_0/router_level2_5 | Beginning VC allocation for VC 0 at input 6 (front: 5).
6 | network_0/router_level2_5 |   Requesting VC 0 at output 10 (in_pri: 0, out_pri: 0).
6 | network_0/router_level2_5 |   Requesting VC 1 at output 10 (in_pri: 0, out_pri: 0).
6 | network_0/router_level2_5 |   Requesting VC 2 at output 10 (in_pri: 0, out_pri: 0).
6 | network_0/router_level2_5 |   Requesting VC 3 at output 10 (in_pri: 0, out_pri: 0).
6 | network_0/router_level2_5/vc_allocator | Input requests = [ 24 -> [ 40@0 41@0 42@0 43@0 ]  ], output requests = [ 40 -> [ 24@0 ]  41 -> [ 24@0 ]  42 -> [ 24@0 ]  43 -> [ 24@0 ]  ].
6 | network_0/router_level2_5/vc_allocator | Input grants = [ 24 -> 40  ], output grants = [ 40 -> 24  ].
6 | network_0/router_level2_5 | Assigning VC 0 at output 10 to VC 0 at input 6.
6 | network_0/router_level2_5 | Completed VC allocation for VC 0 at input 6 (front: 5).
6 | network_0/router_level2_5 |   Acquiring assigned VC 0 at output 10.
6 | network_0/router_level2_5/buf_6/vc_0 | Changing state from vc_alloc to active.
6 | network_0/router_level2_6 | Adding flit 1 to VC 0 at input 1 (state: idle, empty).
6 | network_0/router_level2_6 | Using precomputed lookahead routing information for VC 0 at input 1 (front: 1).
6 | network_0/router_level2_6/buf_1/vc_0 | Changing state from idle to vc_alloc.
6 | network_0/router_level2_6 | Beginning VC allocation for VC 0 at input 1 (front: 1).
6 | network_0/router_level2_6 |   Requesting VC 0 at output 14 (in_pri: 0, out_pri: 0).
6 | network_0/router_level2_6 |   Requesting VC 1 at output 14 (in_pri: 0, out_pri: 0).
6 | network_0/router_level2_6 |   Requesting VC 2 at output 14 (in_pri: 0, out_pri: 0).
6 | network_0/router_level2_6 |   Requesting VC 3 at output 14 (in_pri: 0, out_pri: 0).
6 | network_0/router_level2_6/vc_allocator | Input requests = [ 4 -> [ 56@0 57@0 58@0 59@0 ]  ], output requests = [ 56 -> [ 4@0 ]  57 -> [ 4@0 ]  58 -> [ 4@0 ]  59 -> [ 4@0 ]  ].
6 | network_0/router_level2_6/vc_allocator | Input grants = [ 4 -> 56  ], output grants = [ 56 -> 4  ].
6 | network_0/router_level2_6 | Assigning VC 0 at output 14 to VC 0 at input 1.
6 | network_0/router_level2_6 | Completed VC allocation for VC 0 at input 1 (front: 1).
6 | network_0/router_level2_6 |   Acquiring assigned VC 0 at output 14.
6 | network_0/router_level2_6/buf_1/vc_0 | Changing state from vc_alloc to active.
6 | network_0/router_level2_9 | Adding flit 8 to VC 0 at input 0 (state: idle, empty).
6 | network_0/router_level2_9 | Using precomputed lookahead routing information for VC 0 at input 0 (front: 8).
6 | network_0/router_level2_9/buf_0/vc_0 | Changing state from idle to vc_alloc.
6 | network_0/router_level2_9 | Beginning VC allocation for VC 0 at input 0 (front: 8).
6 | network_0/router_level2_9 |   Requesting VC 0 at output 14 (in_pri: 0, out_pri: 0).
6 | network_0/router_level2_9 |   Requesting VC 1 at output 14 (in_pri: 0, out_pri: 0).
6 | network_0/router_level2_9 |   Requesting VC 2 at output 14 (in_pri: 0, out_pri: 0).
6 | network_0/router_level2_9 |   Requesting VC 3 at output 14 (in_pri: 0, out_pri: 0).
6 | network_0/router_level2_9/vc_allocator | Input requests = [ 0 -> [ 56@0 57@0 58@0 59@0 ]  ], output requests = [ 56 -> [ 0@0 ]  57 -> [ 0@0 ]  58 -> [ 0@0 ]  59 -> [ 0@0 ]  ].
6 | network_0/router_level2_9/vc_allocator | Input grants = [ 0 -> 56  ], output grants = [ 56 -> 0  ].
6 | network_0/router_level2_9 | Assigning VC 0 at output 14 to VC 0 at input 0.
6 | network_0/router_level2_9 | Completed VC allocation for VC 0 at input 0 (front: 8).
6 | network_0/router_level2_9 |   Acquiring assigned VC 0 at output 14.
6 | network_0/router_level2_9/buf_0/vc_0 | Changing state from vc_alloc to active.
6 | network_0/router_level2_11 | Adding flit 7 to VC 0 at input 0 (state: idle, empty).
6 | network_0/router_level2_11 | Using precomputed lookahead routing information for VC 0 at input 0 (front: 7).
6 | network_0/router_level2_11/buf_0/vc_0 | Changing state from idle to vc_alloc.
6 | network_0/router_level2_11 | Beginning VC allocation for VC 0 at input 0 (front: 7).
6 | network_0/router_level2_11 |   Requesting VC 0 at output 9 (in_pri: 0, out_pri: 0).
6 | network_0/router_level2_11 |   Requesting VC 1 at output 9 (in_pri: 0, out_pri: 0).
6 | network_0/router_level2_11 |   Requesting VC 2 at output 9 (in_pri: 0, out_pri: 0).
6 | network_0/router_level2_11 |   Requesting VC 3 at output 9 (in_pri: 0, out_pri: 0).
6 | network_0/router_level2_11/vc_allocator | Input requests = [ 0 -> [ 36@0 37@0 38@0 39@0 ]  ], output requests = [ 36 -> [ 0@0 ]  37 -> [ 0@0 ]  38 -> [ 0@0 ]  39 -> [ 0@0 ]  ].
6 | network_0/router_level2_11/vc_allocator | Input grants = [ 0 -> 36  ], output grants = [ 36 -> 0  ].
6 | network_0/router_level2_11 | Assigning VC 0 at output 9 to VC 0 at input 0.
6 | network_0/router_level2_11 | Completed VC allocation for VC 0 at input 0 (front: 7).
6 | network_0/router_level2_11 |   Acquiring assigned VC 0 at output 9.
6 | network_0/router_level2_11/buf_0/vc_0 | Changing state from vc_alloc to active.
6 | network_0/router_level2_13 | Adding flit 9 to VC 0 at input 1 (state: idle, empty).
6 | network_0/router_level2_13 | Using precomputed lookahead routing information for VC 0 at input 1 (front: 9).
6 | network_0/router_level2_13/buf_1/vc_0 | Changing state from idle to vc_alloc.
6 | network_0/router_level2_13 | Beginning VC allocation for VC 0 at input 1 (front: 9).
6 | network_0/router_level2_13 |   Requesting VC 0 at output 8 (in_pri: 0, out_pri: 0).
6 | network_0/router_level2_13 |   Requesting VC 1 at output 8 (in_pri: 0, out_pri: 0).
6 | network_0/router_level2_13 |   Requesting VC 2 at output 8 (in_pri: 0, out_pri: 0).
6 | network_0/router_level2_13 |   Requesting VC 3 at output 8 (in_pri: 0, out_pri: 0).
6 | network_0/router_level2_13/vc_allocator | Input requests = [ 4 -> [ 32@0 33@0 34@0 35@0 ]  20 -> [ 56@0 57@0 58@0 59@0 ]  ], output requests = [ 32 -> [ 4@0 ]  33 -> [ 4@0 ]  34 -> [ 4@0 ]  35 -> [ 4@0 ]  56 -> [ 20@0 ]  57 -> [ 20@0 ]  58 -> [ 20@0 ]  59 -> [ 20@0 ]  ].
6 | network_0/router_level2_13/vc_allocator | Input grants = [ 4 -> 32  20 -> 56  ], output grants = [ 32 -> 4  56 -> 20  ].
6 | network_0/router_level2_13 | Assigning VC 0 at output 8 to VC 0 at input 1.
6 | network_0/router_level2_13 | Completed VC allocation for VC 0 at input 1 (front: 9).
6 | network_0/router_level2_13 |   Acquiring assigned VC 0 at output 8.
6 | network_0/router_level2_13/buf_1/vc_0 | Changing state from vc_alloc to active.
6 | network_0/router_level2_15 | Adding flit 10 to VC 0 at input 1 (state: idle, empty).
6 | network_0/router_level2_15 | Using precomputed lookahead routing information for VC 0 at input 1 (front: 10).
6 | network_0/router_level2_15/buf_1/vc_0 | Changing state from idle to vc_alloc.
6 | network_0/router_level2_15 | Beginning VC allocation for VC 0 at input 1 (front: 10).
6 | network_0/router_level2_15 |   Requesting VC 0 at output 9 (in_pri: 0, out_pri: 0).
6 | network_0/router_level2_15 |   Requesting VC 1 at output 9 (in_pri: 0, out_pri: 0).
6 | network_0/router_level2_15 |   Requesting VC 2 at output 9 (in_pri: 0, out_pri: 0).
6 | network_0/router_level2_15 |   Requesting VC 3 at output 9 (in_pri: 0, out_pri: 0).
6 | network_0/router_level2_15/vc_allocator | Input requests = [ 4 -> [ 36@0 37@0 38@0 39@0 ]  8 -> [ 48@0 49@0 50@0 51@0 ]  12 -> [ 48@0 49@0 50@0 51@0 ]  28 -> [ 60@0 61@0 62@0 63@0 ]  ], output requests = [ 36 -> [ 4@0 ]  37 -> [ 4@0 ]  38 -> [ 4@0 ]  39 -> [ 4@0 ]  48 -> [ 8@0 12@0 ]  49 -> [ 8@0 12@0 ]  50 -> [ 8@0 12@0 ]  51 -> [ 8@0 12@0 ]  60 -> [ 28@0 ]  61 -> [ 28@0 ]  62 -> [ 28@0 ]  63 -> [ 28@0 ]  ].
6 | network_0/router_level2_15/vc_allocator | Input grants = [ 4 -> 36  8 -> 48  28 -> 60  ], output grants = [ 36 -> 4  48 -> 8  60 -> 28  ].
6 | network_0/router_level2_15 | Assigning VC 0 at output 9 to VC 0 at input 1.
6 | network_0/router_level2_15 | Completed VC allocation for VC 0 at input 1 (front: 10).
6 | network_0/router_level2_15 |   Acquiring assigned VC 0 at output 9.
6 | network_0/router_level2_15/buf_1/vc_0 | Changing state from vc_alloc to active.
7 | network_0/router_level2_1 | Beginning switch allocation for VC 0 at input 7 (front: 6).
7 | network_0/router_level2_1 |   Requesting output 8.0 (non-spec, pri: 0).
7 | network_0/router_level2_1/sw_allocator | Input requests = [ 7 -> [ 8@0 ]  ], output requests = [ 8 -> [ 7@0 ]  ].
7 | network_0/router_level2_1/sw_allocator | Input grants = [ 7 -> 8  ], output grants = [ 8 -> 7  ].
7 | network_0/router_level2_1 | Assigning output 8.0 to VC 0 at input 7.0.
7 | network_0/router_level2_1 | Completed switch allocation for VC 0 at input 7 (front: 6).
7 | network_0/router_level2_1 |   Scheduling switch connection from input 7.0 to output 8.0.
7 | network_0/router_level2_1 | Updating lookahead routing information for flit 6.
7 | network_0/router_level2_3 | Beginning switch allocation for VC 0 at input 5 (front: 3).
7 | network_0/router_level2_3 |   Requesting output 12.0 (non-spec, pri: 0).
7 | network_0/router_level2_3 | Beginning switch allocation for VC 0 at input 6 (front: 4).
7 | network_0/router_level2_3 |   Requesting output 8.0 (non-spec, pri: 0).
7 | network_0/router_level2_3/sw_allocator | Input requests = [ 5 -> [ 12@0 ]  6 -> [ 8@0 ]  ], output requests = [ 8 -> [ 6@0 ]  12 -> [ 5@0 ]  ].
7 | network_0/router_level2_3/sw_allocator | Input grants = [ 5 -> 12  6 -> 8  ], output grants = [ 8 -> 6  12 -> 5  ].
7 | network_0/router_level2_3 | Assigning output 12.0 to VC 0 at input 5.0.
7 | network_0/router_level2_3 | Assigning output 8.0 to VC 0 at input 6.0.
7 | network_0/router_level2_3 | Completed switch allocation for VC 0 at input 5 (front: 3).
7 | network_0/router_level2_3 |   Scheduling switch connection from input 5.0 to output 12.0.
7 | network_0/router_level2_3 | Updating lookahead routing information for flit 3.
7 | network_0/router_level2_3 | Completed switch allocation for VC 0 at input 6 (front: 4).
7 | network_0/router_level2_3 |   Scheduling switch connection from input 6.0 to output 8.0.
7 | network_0/router_level2_3 | Updating lookahead routing information for flit 4.
7 | network_0/router_level2_4 | Beginning switch allocation for VC 0 at input 4 (front: 2).
7 | network_0/router_level2_4 |   Requesting output 11.0 (non-spec, pri: 0).
7 | network_0/router_level2_4/sw_allocator | Input requests = [ 1 -> [ 10@0 ]  4 -> [ 11@0 ]  ], output requests = [ 10 -> [ 1@0 ]  11 -> [ 4@0 ]  ].
7 | network_0/router_level2_4/sw_allocator | Input grants = [ 1 -> 10  4 -> 11  ], output grants = [ 10 -> 1  11 -> 4  ].
7 | network_0/router_level2_4 | Assigning output 11.0 to VC 0 at input 4.0.
7 | network_0/router_level2_4 | Completed switch allocation for VC 0 at input 4 (front: 2).
7 | network_0/router_level2_4 |   Scheduling switch connection from input 4.0 to output 11.0.
7 | network_0/router_level2_4 | Updating lookahead routing information for flit 2.
7 | network_0/router_level2_5 | Beginning switch allocation for VC 0 at input 6 (front: 5).
7 | network_0/router_level2_5 |   Requesting output 10.0 (non-spec, pri: 0).
7 | network_0/router_level2_5/sw_allocator | Input requests = [ 6 -> [ 10@0 ]  ], output requests = [ 10 -> [ 6@0 ]  ].
7 | network_0/router_level2_5/sw_allocator | Input grants = [ 6 -> 10  ], output grants = [ 10 -> 6  ].
7 | network_0/router_level2_5 | Assigning output 10.0 to VC 0 at input 6.0.
7 | network_0/router_level2_5 | Completed switch allocation for VC 0 at input 6 (front: 5).
7 | network_0/router_level2_5 |   Scheduling switch connection from input 6.0 to output 10.0.
7 | network_0/router_level2_5 | Updating lookahead routing information for flit 5.
7 | network_0/router_level2_6 | Beginning switch allocation for VC 0 at input 1 (front: 1).
7 | network_0/router_level2_6 |   Requesting output 14.0 (non-spec, pri: 0).
7 | network_0/router_level2_6/sw_allocator | Input requests = [ 1 -> [ 14@0 ]  ], output requests = [ 14 -> [ 1@0 ]  ].
7 | network_0/router_level2_6/sw_allocator | Input grants = [ 1 -> 14  ], output grants = [ 14 -> 1  ].
7 | network_0/router_level2_6 | Assigning output 14.0 to VC 0 at input 1.0.
7 | network_0/router_level2_6 | Completed switch allocation for VC 0 at input 1 (front: 1).
7 | network_0/router_level2_6 |   Scheduling switch connection from input 1.0 to output 14.0.
7 | network_0/router_level2_6 | Updating lookahead routing information for flit 1.
7 | network_0/router_level2_9 | Beginning switch allocation for VC 0 at input 0 (front: 8).
7 | network_0/router_level2_9 |   Requesting output 14.0 (non-spec, pri: 0).
7 | network_0/router_level2_9/sw_allocator | Input requests = [ 0 -> [ 14@0 ]  ], output requests = [ 14 -> [ 0@0 ]  ].
7 | network_0/router_level2_9/sw_allocator | Input grants = [ 0 -> 14  ], output grants = [ 14 -> 0  ].
7 | network_0/router_level2_9 | Assigning output 14.0 to VC 0 at input 0.0.
7 | network_0/router_level2_9 | Completed switch allocation for VC 0 at input 0 (front: 8).
7 | network_0/router_level2_9 |   Scheduling switch connection from input 0.0 to output 14.0.
7 | network_0/router_level2_9 | Updating lookahead routing information for flit 8.
7 | network_0/router_level2_11 | Beginning switch allocation for VC 0 at input 0 (front: 7).
7 | network_0/router_level2_11 |   Requesting output 9.0 (non-spec, pri: 0).
7 | network_0/router_level2_11/sw_allocator | Input requests = [ 0 -> [ 9@0 ]  ], output requests = [ 9 -> [ 0@0 ]  ].
7 | network_0/router_level2_11/sw_allocator | Input grants = [ 0 -> 9  ], output grants = [ 9 -> 0  ].
7 | network_0/router_level2_11 | Assigning output 9.0 to VC 0 at input 0.0.
7 | network_0/router_level2_11 | Completed switch allocation for VC 0 at input 0 (front: 7).
7 | network_0/router_level2_11 |   Scheduling switch connection from input 0.0 to output 9.0.
7 | network_0/router_level2_11 | Updating lookahead routing information for flit 7.
7 | network_0/router_level2_13 | Beginning switch allocation for VC 0 at input 1 (front: 9).
7 | network_0/router_level2_13 |   Requesting output 8.0 (non-spec, pri: 0).
7 | network_0/router_level2_13/sw_allocator | Input requests = [ 1 -> [ 8@0 ]  5 -> [ 14@0 ]  ], output requests = [ 8 -> [ 1@0 ]  14 -> [ 5@0 ]  ].
7 | network_0/router_level2_13/sw_allocator | Input grants = [ 1 -> 8  5 -> 14  ], output grants = [ 8 -> 1  14 -> 5  ].
7 | network_0/router_level2_13 | Assigning output 8.0 to VC 0 at input 1.0.
7 | network_0/router_level2_13 | Completed switch allocation for VC 0 at input 1 (front: 9).
7 | network_0/router_level2_13 |   Scheduling switch connection from input 1.0 to output 8.0.
7 | network_0/router_level2_13 | Updating lookahead routing information for flit 9.
7 | network_0/router_level2_15 | Beginning switch allocation for VC 0 at input 1 (front: 10).
7 | network_0/router_level2_15 |   Requesting output 9.0 (non-spec, pri: 0).
7 | network_0/router_level2_15/sw_allocator | Input requests = [ 1 -> [ 9@0 ]  2 -> [ 12@0 ]  7 -> [ 15@0 ]  ], output requests = [ 9 -> [ 1@0 ]  12 -> [ 2@0 ]  15 -> [ 7@0 ]  ].
7 | network_0/router_level2_15/sw_allocator | Input grants = [ 1 -> 9  2 -> 12  7 -> 15  ], output grants = [ 9 -> 1  12 -> 2  15 -> 7  ].
7 | network_0/router_level2_15 | Assigning output 9.0 to VC 0 at input 1.0.
7 | network_0/router_level2_15 | Completed switch allocation for VC 0 at input 1 (front: 10).
7 | network_0/router_level2_15 |   Scheduling switch connection from input 1.0 to output 9.0.
7 | network_0/router_level2_15 | Updating lookahead routing information for flit 10.
8 | network_0/router_level2_1 | Beginning crossbar traversal for flit 6 from input 7.0 to output 8.0.
8 | network_0/router_level2_1 | Completed crossbar traversal for flit 6 from input 7.0 to output 8.0.
8 | network_0/router_level2_1 | Buffering flit 6 at output 8.
8 | network_0/router_level2_3 | Beginning crossbar traversal for flit 3 from input 5.0 to output 12.0.
8 | network_0/router_level2_3 | Beginning crossbar traversal for flit 4 from input 6.0 to output 8.0.
8 | network_0/router_level2_3 | Completed crossbar traversal for flit 3 from input 5.0 to output 12.0.
8 | network_0/router_level2_3 | Buffering flit 3 at output 12.
8 | network_0/router_level2_3 | Completed crossbar traversal for flit 4 from input 6.0 to output 8.0.
8 | network_0/router_level2_3 | Buffering flit 4 at output 8.
8 | network_0/router_level2_4 | Beginning crossbar traversal for flit 2 from input 4.0 to output 11.0.
8 | network_0/router_level2_4 | Completed crossbar traversal for flit 2 from input 4.0 to output 11.0.
8 | network_0/router_level2_4 | Buffering flit 2 at output 11.
8 | network_0/router_level2_5 | Beginning crossbar traversal for flit 5 from input 6.0 to output 10.0.
8 | network_0/router_level2_5 | Completed crossbar traversal for flit 5 from input 6.0 to output 10.0.
8 | network_0/router_level2_5 | Buffering flit 5 at output 10.
8 | network_0/router_level2_6 | Beginning crossbar traversal for flit 1 from input 1.0 to output 14.0.
8 | network_0/router_level2_6 | Completed crossbar traversal for flit 1 from input 1.0 to output 14.0.
8 | network_0/router_level2_6 | Buffering flit 1 at output 14.
8 | network_0/router_level2_9 | Beginning crossbar traversal for flit 8 from input 0.0 to output 14.0.
8 | network_0/router_level2_9 | Completed crossbar traversal for flit 8 from input 0.0 to output 14.0.
8 | network_0/router_level2_9 | Buffering flit 8 at output 14.
8 | network_0/router_level2_11 | Beginning crossbar traversal for flit 7 from input 0.0 to output 9.0.
8 | network_0/router_level2_11 | Completed crossbar traversal for flit 7 from input 0.0 to output 9.0.
8 | network_0/router_level2_11 | Buffering flit 7 at output 9.
8 | network_0/router_level2_13 | Beginning crossbar traversal for flit 9 from input 1.0 to output 8.0.
8 | network_0/router_level2_13 | Completed crossbar traversal for flit 9 from input 1.0 to output 8.0.
8 | network_0/router_level2_13 | Buffering flit 9 at output 8.
8 | network_0/router_level2_15 | Beginning crossbar traversal for flit 10 from input 1.0 to output 9.0.
8 | network_0/router_level2_15 | Completed crossbar traversal for flit 10 from input 1.0 to output 9.0.
8 | network_0/router_level2_15 | Buffering flit 10 at output 9.
8 | network_0/router_level2_1 | Sending flit 6 to channel at output 8.
8 | network_0/router_level2_3 | Sending flit 4 to channel at output 8.
8 | network_0/router_level2_3 | Sending flit 3 to channel at output 12.
8 | network_0/router_level2_4 | Sending flit 2 to channel at output 11.
8 | network_0/router_level2_5 | Sending flit 5 to channel at output 10.
8 | network_0/router_level2_6 | Sending flit 1 to channel at output 14.
8 | network_0/router_level2_9 | Sending flit 8 to channel at output 14.
8 | network_0/router_level2_11 | Sending flit 7 to channel at output 9.
8 | network_0/router_level2_13 | Sending flit 9 to channel at output 8.
8 | network_0/router_level2_15 | Sending flit 10 to channel at output 9.
9 | network_0/network_0_fchan_12296 | Beginning channel traversal for flit 6 with delay 1.
9 | network_0/network_0_fchan_12312 | Beginning channel traversal for flit 4 with delay 1.
9 | network_0/network_0_fchan_12316 | Beginning channel traversal for flit 3 with delay 1.
9 | network_0/network_0_fchan_12323 | Beginning channel traversal for flit 2 with delay 1.
9 | network_0/network_0_fchan_12330 | Beginning channel traversal for flit 5 with delay 1.
9 | network_0/network_0_fchan_12342 | Beginning channel traversal for flit 1 with delay 1.
9 | network_0/network_0_fchan_12366 | Beginning channel traversal for flit 8 with delay 1.
9 | network_0/network_0_fchan_12377 | Beginning channel traversal for flit 7 with delay 1.
9 | network_0/network_0_fchan_12392 | Beginning channel traversal for flit 9 with delay 1.
9 | network_0/network_0_fchan_12409 | Beginning channel traversal for flit 10 with delay 1.
9 | network_0/network_0_fchan_12296 | Completed channel traversal for flit 6.
9 | network_0/network_0_fchan_12312 | Completed channel traversal for flit 4.
9 | network_0/network_0_fchan_12316 | Completed channel traversal for flit 3.
9 | network_0/network_0_fchan_12323 | Completed channel traversal for flit 2.
9 | network_0/network_0_fchan_12330 | Completed channel traversal for flit 5.
9 | network_0/network_0_fchan_12342 | Completed channel traversal for flit 1.
9 | network_0/network_0_fchan_12366 | Completed channel traversal for flit 8.
9 | network_0/network_0_fchan_12377 | Completed channel traversal for flit 7.
9 | network_0/network_0_fchan_12392 | Completed channel traversal for flit 9.
9 | network_0/network_0_fchan_12409 | Completed channel traversal for flit 10.
10 | network_0/router_level1_1 | Received flit 6 from channel at input 0.
10 | network_0/router_level1_3 | Received flit 4 from channel at input 0.
10 | network_0/router_level1_5 | Received flit 9 from channel at input 1.
10 | network_0/router_level1_11 | Received flit 7 from channel at input 1.
10 | network_0/router_level1_15 | Received flit 10 from channel at input 1.
10 | network_0/router_level1_21 | Received flit 5 from channel at input 0.
10 | network_0/router_level1_28 | Received flit 2 from channel at input 0.
10 | network_0/router_level1_35 | Received flit 3 from channel at input 0.
10 | network_0/router_level1_49 | Received flit 8 from channel at input 1.
10 | network_0/router_level1_54 | Received flit 1 from channel at input 0.
10 | network_0/router_level1_1 | Adding flit 6 to VC 0 at input 0 (state: idle, empty).
10 | network_0/router_level1_1 | Using precomputed lookahead routing information for VC 0 at input 0 (front: 6).
10 | network_0/router_level1_1/buf_0/vc_0 | Changing state from idle to vc_alloc.
10 | network_0/router_level1_1 | Beginning VC allocation for VC 0 at input 0 (front: 6).
10 | network_0/router_level1_1 |   Requesting VC 0 at output 9 (in_pri: 0, out_pri: 0).
10 | network_0/router_level1_1 |   Requesting VC 1 at output 9 (in_pri: 0, out_pri: 0).
10 | network_0/router_level1_1 |   Requesting VC 2 at output 9 (in_pri: 0, out_pri: 0).
10 | network_0/router_level1_1 |   Requesting VC 3 at output 9 (in_pri: 0, out_pri: 0).
10 | network_0/router_level1_1/vc_allocator | Input requests = [ 0 -> [ 36@0 37@0 38@0 39@0 ]  ], output requests = [ 36 -> [ 0@0 ]  37 -> [ 0@0 ]  38 -> [ 0@0 ]  39 -> [ 0@0 ]  ].
10 | network_0/router_level1_1/vc_allocator | Input grants = [ 0 -> 36  ], output grants = [ 36 -> 0  ].
10 | network_0/router_level1_1 | Assigning VC 0 at output 9 to VC 0 at input 0.
10 | network_0/router_level1_1 | Completed VC allocation for VC 0 at input 0 (front: 6).
10 | network_0/router_level1_1 |   Acquiring assigned VC 0 at output 9.
10 | network_0/router_level1_1/buf_0/vc_0 | Changing state from vc_alloc to active.
10 | network_0/router_level1_3 | Adding flit 4 to VC 0 at input 0 (state: idle, empty).
10 | network_0/router_level1_3 | Using precomputed lookahead routing information for VC 0 at input 0 (front: 4).
10 | network_0/router_level1_3/buf_0/vc_0 | Changing state from idle to vc_alloc.
10 | network_0/router_level1_3 | Beginning VC allocation for VC 0 at input 0 (front: 4).
10 | network_0/router_level1_3 |   Requesting VC 0 at output 9 (in_pri: 0, out_pri: 0).
10 | network_0/router_level1_3 |   Requesting VC 1 at output 9 (in_pri: 0, out_pri: 0).
10 | network_0/router_level1_3 |   Requesting VC 2 at output 9 (in_pri: 0, out_pri: 0).
10 | network_0/router_level1_3 |   Requesting VC 3 at output 9 (in_pri: 0, out_pri: 0).
10 | network_0/router_level1_3/vc_allocator | Input requests = [ 0 -> [ 36@0 37@0 38@0 39@0 ]  16 -> [ 32@0 33@0 34@0 35@0 ]  ], output requests = [ 32 -> [ 16@0 ]  33 -> [ 16@0 ]  34 -> [ 16@0 ]  35 -> [ 16@0 ]  36 -> [ 0@0 ]  37 -> [ 0@0 ]  38 -> [ 0@0 ]  39 -> [ 0@0 ]  ].
10 | network_0/router_level1_3/vc_allocator | Input grants = [ 0 -> 36  16 -> 32  ], output grants = [ 32 -> 16  36 -> 0  ].
10 | network_0/router_level1_3 | Assigning VC 0 at output 9 to VC 0 at input 0.
10 | network_0/router_level1_3 | Completed VC allocation for VC 0 at input 0 (front: 4).
10 | network_0/router_level1_3 |   Acquiring assigned VC 0 at output 9.
10 | network_0/router_level1_3/buf_0/vc_0 | Changing state from vc_alloc to active.
10 | network_0/router_level1_5 | Adding flit 9 to VC 0 at input 1 (state: idle, empty).
10 | network_0/router_level1_5 | Using precomputed lookahead routing information for VC 0 at input 1 (front: 9).
10 | network_0/router_level1_5/buf_1/vc_0 | Changing state from idle to vc_alloc.
10 | network_0/router_level1_5 | Beginning VC allocation for VC 0 at input 1 (front: 9).
10 | network_0/router_level1_5 |   Requesting VC 0 at output 9 (in_pri: 0, out_pri: 0).
10 | network_0/router_level1_5 |   Requesting VC 1 at output 9 (in_pri: 0, out_pri: 0).
10 | network_0/router_level1_5 |   Requesting VC 2 at output 9 (in_pri: 0, out_pri: 0).
10 | network_0/router_level1_5 |   Requesting VC 3 at output 9 (in_pri: 0, out_pri: 0).
10 | network_0/router_level1_5/vc_allocator | Input requests = [ 4 -> [ 36@0 37@0 38@0 39@0 ]  8 -> [ 32@0 33@0 34@0 35@0 ]  ], output requests = [ 32 -> [ 8@0 ]  33 -> [ 8@0 ]  34 -> [ 8@0 ]  35 -> [ 8@0 ]  36 -> [ 4@0 ]  37 -> [ 4@0 ]  38 -> [ 4@0 ]  39 -> [ 4@0 ]  ].
10 | network_0/router_level1_5/vc_allocator | Input grants = [ 4 -> 36  8 -> 32  ], output grants = [ 32 -> 8  36 -> 4  ].
10 | network_0/router_level1_5 | Assigning VC 0 at output 9 to VC 0 at input 1.
10 | network_0/router_level1_5 | Completed VC allocation for VC 0 at input 1 (front: 9).
10 | network_0/router_level1_5 |   Acquiring assigned VC 0 at output 9.
10 | network_0/router_level1_5/buf_1/vc_0 | Changing state from vc_alloc to active.
10 | network_0/router_level1_11 | Adding flit 7 to VC 0 at input 1 (state: idle, empty).
10 | network_0/router_level1_11 | Using precomputed lookahead routing information for VC 0 at input 1 (front: 7).
10 | network_0/router_level1_11/buf_1/vc_0 | Changing state from idle to vc_alloc.
10 | network_0/router_level1_11 | Beginning VC allocation for VC 0 at input 1 (front: 7).
10 | network_0/router_level1_11 |   Requesting VC 0 at output 8 (in_pri: 0, out_pri: 0).
10 | network_0/router_level1_11 |   Requesting VC 1 at output 8 (in_pri: 0, out_pri: 0).
10 | network_0/router_level1_11 |   Requesting VC 2 at output 8 (in_pri: 0, out_pri: 0).
10 | network_0/router_level1_11 |   Requesting VC 3 at output 8 (in_pri: 0, out_pri: 0).
10 | network_0/router_level1_11/vc_allocator | Input requests = [ 4 -> [ 32@0 33@0 34@0 35@0 ]  ], output requests = [ 32 -> [ 4@0 ]  33 -> [ 4@0 ]  34 -> [ 4@0 ]  35 -> [ 4@0 ]  ].
10 | network_0/router_level1_11/vc_allocator | Input grants = [ 4 -> 32  ], output grants = [ 32 -> 4  ].
10 | network_0/router_level1_11 | Assigning VC 0 at output 8 to VC 0 at input 1.
10 | network_0/router_level1_11 | Completed VC allocation for VC 0 at input 1 (front: 7).
10 | network_0/router_level1_11 |   Acquiring assigned VC 0 at output 8.
10 | network_0/router_level1_11/buf_1/vc_0 | Changing state from vc_alloc to active.
10 | network_0/router_level1_15 | Adding flit 10 to VC 0 at input 1 (state: idle, empty).
10 | network_0/router_level1_15 | Using precomputed lookahead routing information for VC 0 at input 1 (front: 10).
10 | network_0/router_level1_15/buf_1/vc_0 | Changing state from idle to vc_alloc.
10 | network_0/router_level1_15 | Beginning VC allocation for VC 0 at input 1 (front: 10).
10 | network_0/router_level1_15 |   Requesting VC 0 at output 8 (in_pri: 0, out_pri: 0).
10 | network_0/router_level1_15 |   Requesting VC 1 at output 8 (in_pri: 0, out_pri: 0).
10 | network_0/router_level1_15 |   Requesting VC 2 at output 8 (in_pri: 0, out_pri: 0).
10 | network_0/router_level1_15 |   Requesting VC 3 at output 8 (in_pri: 0, out_pri: 0).
10 | network_0/router_level1_15/vc_allocator | Input requests = [ 4 -> [ 32@0 33@0 34@0 35@0 ]  20 -> [ 32@0 33@0 34@0 35@0 ]  ], output requests = [ 32 -> [ 4@0 20@0 ]  33 -> [ 4@0 20@0 ]  34 -> [ 4@0 20@0 ]  35 -> [ 4@0 20@0 ]  ].
10 | network_0/router_level1_15/vc_allocator | Input grants = [ 4 -> 32  ], output grants = [ 32 -> 4  ].
10 | network_0/router_level1_15 | Assigning VC 0 at output 8 to VC 0 at input 1.
10 | network_0/router_level1_15 | Completed VC allocation for VC 0 at input 1 (front: 10).
10 | network_0/router_level1_15 |   Acquiring assigned VC 0 at output 8.
10 | network_0/router_level1_15/buf_1/vc_0 | Changing state from vc_alloc to active.
10 | network_0/router_level1_21 | Adding flit 5 to VC 0 at input 0 (state: idle, empty).
10 | network_0/router_level1_21 | Using precomputed lookahead routing information for VC 0 at input 0 (front: 5).
10 | network_0/router_level1_21/buf_0/vc_0 | Changing state from idle to vc_alloc.
10 | network_0/router_level1_21 | Beginning VC allocation for VC 0 at input 0 (front: 5).
10 | network_0/router_level1_21 |   Requesting VC 0 at output 8 (in_pri: 0, out_pri: 0).
10 | network_0/router_level1_21 |   Requesting VC 1 at output 8 (in_pri: 0, out_pri: 0).
10 | network_0/router_level1_21 |   Requesting VC 2 at output 8 (in_pri: 0, out_pri: 0).
10 | network_0/router_level1_21 |   Requesting VC 3 at output 8 (in_pri: 0, out_pri: 0).
10 | network_0/router_level1_21/vc_allocator | Input requests = [ 0 -> [ 32@0 33@0 34@0 35@0 ]  12 -> [ 36@0 37@0 38@0 39@0 ]  ], output requests = [ 32 -> [ 0@0 ]  33 -> [ 0@0 ]  34 -> [ 0@0 ]  35 -> [ 0@0 ]  36 -> [ 12@0 ]  37 -> [ 12@0 ]  38 -> [ 12@0 ]  39 -> [ 12@0 ]  ].
10 | network_0/router_level1_21/vc_allocator | Input grants = [ 0 -> 32  12 -> 36  ], output grants = [ 32 -> 0  36 -> 12  ].
10 | network_0/router_level1_21 | Assigning VC 0 at output 8 to VC 0 at input 0.
10 | network_0/router_level1_21 | Completed VC allocation for VC 0 at input 0 (front: 5).
10 | network_0/router_level1_21 |   Acquiring assigned VC 0 at output 8.
10 | network_0/router_level1_21/buf_0/vc_0 | Changing state from vc_alloc to active.
10 | network_0/router_level1_28 | Adding flit 2 to VC 0 at input 0 (state: idle, empty).
10 | network_0/router_level1_28 | Using precomputed lookahead routing information for VC 0 at input 0 (front: 2).
10 | network_0/router_level1_28/buf_0/vc_0 | Changing state from idle to vc_alloc.
10 | network_0/router_level1_28 | Beginning VC allocation for VC 0 at input 0 (front: 2).
10 | network_0/router_level1_28 |   Requesting VC 0 at output 8 (in_pri: 0, out_pri: 0).
10 | network_0/router_level1_28 |   Requesting VC 1 at output 8 (in_pri: 0, out_pri: 0).
10 | network_0/router_level1_28 |   Requesting VC 2 at output 8 (in_pri: 0, out_pri: 0).
10 | network_0/router_level1_28 |   Requesting VC 3 at output 8 (in_pri: 0, out_pri: 0).
10 | network_0/router_level1_28/vc_allocator | Input requests = [ 0 -> [ 32@0 33@0 34@0 35@0 ]  ], output requests = [ 32 -> [ 0@0 ]  33 -> [ 0@0 ]  34 -> [ 0@0 ]  35 -> [ 0@0 ]  ].
10 | network_0/router_level1_28/vc_allocator | Input grants = [ 0 -> 32  ], output grants = [ 32 -> 0  ].
10 | network_0/router_level1_28 | Assigning VC 0 at output 8 to VC 0 at input 0.
10 | network_0/router_level1_28 | Completed VC allocation for VC 0 at input 0 (front: 2).
10 | network_0/router_level1_28 |   Acquiring assigned VC 0 at output 8.
10 | network_0/router_level1_28/buf_0/vc_0 | Changing state from vc_alloc to active.
10 | network_0/router_level1_35 | Adding flit 3 to VC 0 at input 0 (state: idle, empty).
10 | network_0/router_level1_35 | Using precomputed lookahead routing information for VC 0 at input 0 (front: 3).
10 | network_0/router_level1_35/buf_0/vc_0 | Changing state from idle to vc_alloc.
10 | network_0/router_level1_35 | Beginning VC allocation for VC 0 at input 0 (front: 3).
10 | network_0/router_level1_35 |   Requesting VC 0 at output 9 (in_pri: 0, out_pri: 0).
10 | network_0/router_level1_35 |   Requesting VC 1 at output 9 (in_pri: 0, out_pri: 0).
10 | network_0/router_level1_35 |   Requesting VC 2 at output 9 (in_pri: 0, out_pri: 0).
10 | network_0/router_level1_35 |   Requesting VC 3 at output 9 (in_pri: 0, out_pri: 0).
10 | network_0/router_level1_35/vc_allocator | Input requests = [ 0 -> [ 36@0 37@0 38@0 39@0 ]  16 -> [ 32@0 33@0 34@0 35@0 ]  20 -> [ 36@0 37@0 38@0 39@0 ]  ], output requests = [ 32 -> [ 16@0 ]  33 -> [ 16@0 ]  34 -> [ 16@0 ]  35 -> [ 16@0 ]  36 -> [ 0@0 20@0 ]  37 -> [ 0@0 20@0 ]  38 -> [ 0@0 20@0 ]  39 -> [ 0@0 20@0 ]  ].
10 | network_0/router_level1_35/vc_allocator | Input grants = [ 0 -> 36  16 -> 32  ], output grants = [ 32 -> 16  36 -> 0  ].
10 | network_0/router_level1_35 | Assigning VC 0 at output 9 to VC 0 at input 0.
10 | network_0/router_level1_35 | Completed VC allocation for VC 0 at input 0 (front: 3).
10 | network_0/router_level1_35 |   Acquiring assigned VC 0 at output 9.
10 | network_0/router_level1_35/buf_0/vc_0 | Changing state from vc_alloc to active.
10 | network_0/router_level1_49 | Adding flit 8 to VC 0 at input 1 (state: idle, empty).
10 | network_0/router_level1_49 | Using precomputed lookahead routing information for VC 0 at input 1 (front: 8).
10 | network_0/router_level1_49/buf_1/vc_0 | Changing state from idle to vc_alloc.
10 | network_0/router_level1_49 | Beginning VC allocation for VC 0 at input 1 (front: 8).
10 | network_0/router_level1_49 |   Requesting VC 0 at output 8 (in_pri: 0, out_pri: 0).
10 | network_0/router_level1_49 |   Requesting VC 1 at output 8 (in_pri: 0, out_pri: 0).
10 | network_0/router_level1_49 |   Requesting VC 2 at output 8 (in_pri: 0, out_pri: 0).
10 | network_0/router_level1_49 |   Requesting VC 3 at output 8 (in_pri: 0, out_pri: 0).
10 | network_0/router_level1_49/vc_allocator | Input requests = [ 4 -> [ 32@0 33@0 34@0 35@0 ]  20 -> [ 36@0 37@0 38@0 39@0 ]  ], output requests = [ 32 -> [ 4@0 ]  33 -> [ 4@0 ]  34 -> [ 4@0 ]  35 -> [ 4@0 ]  36 -> [ 20@0 ]  37 -> [ 20@0 ]  38 -> [ 20@0 ]  39 -> [ 20@0 ]  ].
10 | network_0/router_level1_49/vc_allocator | Input grants = [ 4 -> 32  20 -> 36  ], output grants = [ 32 -> 4  36 -> 20  ].
10 | network_0/router_level1_49 | Assigning VC 0 at output 8 to VC 0 at input 1.
10 | network_0/router_level1_49 | Completed VC allocation for VC 0 at input 1 (front: 8).
10 | network_0/router_level1_49 |   Acquiring assigned VC 0 at output 8.
10 | network_0/router_level1_49/buf_1/vc_0 | Changing state from vc_alloc to active.
10 | network_0/router_level1_54 | Adding flit 1 to VC 0 at input 0 (state: idle, empty).
10 | network_0/router_level1_54 | Using precomputed lookahead routing information for VC 0 at input 0 (front: 1).
10 | network_0/router_level1_54/buf_0/vc_0 | Changing state from idle to vc_alloc.
10 | network_0/router_level1_54 | Beginning VC allocation for VC 0 at input 0 (front: 1).
10 | network_0/router_level1_54 |   Requesting VC 0 at output 8 (in_pri: 0, out_pri: 0).
10 | network_0/router_level1_54 |   Requesting VC 1 at output 8 (in_pri: 0, out_pri: 0).
10 | network_0/router_level1_54 |   Requesting VC 2 at output 8 (in_pri: 0, out_pri: 0).
10 | network_0/router_level1_54 |   Requesting VC 3 at output 8 (in_pri: 0, out_pri: 0).
10 | network_0/router_level1_54/vc_allocator | Input requests = [ 0 -> [ 32@0 33@0 34@0 35@0 ]  12 -> [ 36@0 37@0 38@0 39@0 ]  ], output requests = [ 32 -> [ 0@0 ]  33 -> [ 0@0 ]  34 -> [ 0@0 ]  35 -> [ 0@0 ]  36 -> [ 12@0 ]  37 -> [ 12@0 ]  38 -> [ 12@0 ]  39 -> [ 12@0 ]  ].
10 | network_0/router_level1_54/vc_allocator | Input grants = [ 0 -> 32  12 -> 36  ], output grants = [ 32 -> 0  36 -> 12  ].
10 | network_0/router_level1_54 | Assigning VC 0 at output 8 to VC 0 at input 0.
10 | network_0/router_level1_54 | Completed VC allocation for VC 0 at input 0 (front: 1).
10 | network_0/router_level1_54 |   Acquiring assigned VC 0 at output 8.
10 | network_0/router_level1_54/buf_0/vc_0 | Changing state from vc_alloc to active.
11 | network_0/router_level1_1 | Beginning switch allocation for VC 0 at input 0 (front: 6).
11 | network_0/router_level1_1 |   Requesting output 9.0 (non-spec, pri: 0).
11 | network_0/router_level1_1/sw_allocator | Input requests = [ 0 -> [ 9@0 ]  ], output requests = [ 9 -> [ 0@0 ]  ].
11 | network_0/router_level1_1/sw_allocator | Input grants = [ 0 -> 9  ], output grants = [ 9 -> 0  ].
11 | network_0/router_level1_1 | Assigning output 9.0 to VC 0 at input 0.0.
11 | network_0/router_level1_1 | Completed switch allocation for VC 0 at input 0 (front: 6).
11 | network_0/router_level1_1 |   Scheduling switch connection from input 0.0 to output 9.0.
11 | network_0/router_level1_1 | Updating lookahead routing information for flit 6.
11 | network_0/router_level1_3 | Beginning switch allocation for VC 0 at input 0 (front: 4).
11 | network_0/router_level1_3 |   Requesting output 9.0 (non-spec, pri: 0).
11 | network_0/router_level1_3/sw_allocator | Input requests = [ 0 -> [ 9@0 ]  4 -> [ 8@0 ]  ], output requests = [ 8 -> [ 4@0 ]  9 -> [ 0@0 ]  ].
11 | network_0/router_level1_3/sw_allocator | Input grants = [ 0 -> 9  4 -> 8  ], output grants = [ 8 -> 4  9 -> 0  ].
11 | network_0/router_level1_3 | Assigning output 9.0 to VC 0 at input 0.0.
11 | network_0/router_level1_3 | Completed switch allocation for VC 0 at input 0 (front: 4).
11 | network_0/router_level1_3 |   Scheduling switch connection from input 0.0 to output 9.0.
11 | network_0/router_level1_3 | Updating lookahead routing information for flit 4.
11 | network_0/router_level1_5 | Beginning switch allocation for VC 0 at input 1 (front: 9).
11 | network_0/router_level1_5 |   Requesting output 9.0 (non-spec, pri: 0).
11 | network_0/router_level1_5/sw_allocator | Input requests = [ 1 -> [ 9@0 ]  2 -> [ 8@0 ]  ], output requests = [ 8 -> [ 2@0 ]  9 -> [ 1@0 ]  ].
11 | network_0/router_level1_5/sw_allocator | Input grants = [ 1 -> 9  2 -> 8  ], output grants = [ 8 -> 2  9 -> 1  ].
11 | network_0/router_level1_5 | Assigning output 9.0 to VC 0 at input 1.0.
11 | network_0/router_level1_5 | Completed switch allocation for VC 0 at input 1 (front: 9).
11 | network_0/router_level1_5 |   Scheduling switch connection from input 1.0 to output 9.0.
11 | network_0/router_level1_5 | Updating lookahead routing information for flit 9.
11 | network_0/router_level1_11 | Beginning switch allocation for VC 0 at input 1 (front: 7).
11 | network_0/router_level1_11 |   Requesting output 8.0 (non-spec, pri: 0).
11 | network_0/router_level1_11/sw_allocator | Input requests = [ 1 -> [ 8@0 ]  ], output requests = [ 8 -> [ 1@0 ]  ].
11 | network_0/router_level1_11/sw_allocator | Input grants = [ 1 -> 8  ], output grants = [ 8 -> 1  ].
11 | network_0/router_level1_11 | Assigning output 8.0 to VC 0 at input 1.0.
11 | network_0/router_level1_11 | Completed switch allocation for VC 0 at input 1 (front: 7).
11 | network_0/router_level1_11 |   Scheduling switch connection from input 1.0 to output 8.0.
11 | network_0/router_level1_11 | Updating lookahead routing information for flit 7.
11 | network_0/router_level1_15 | Beginning switch allocation for VC 0 at input 1 (front: 10).
11 | network_0/router_level1_15 |   Requesting output 8.0 (non-spec, pri: 0).
11 | network_0/router_level1_15/sw_allocator | Input requests = [ 1 -> [ 8@0 ]  ], output requests = [ 8 -> [ 1@0 ]  ].
11 | network_0/router_level1_15/sw_allocator | Input grants = [ 1 -> 8  ], output grants = [ 8 -> 1  ].
11 | network_0/router_level1_15 | Assigning output 8.0 to VC 0 at input 1.0.
11 | network_0/router_level1_15 | Completed switch allocation for VC 0 at input 1 (front: 10).
11 | network_0/router_level1_15 |   Scheduling switch connection from input 1.0 to output 8.0.
11 | network_0/router_level1_15 | Updating lookahead routing information for flit 10.
11 | network_0/router_level1_21 | Beginning switch allocation for VC 0 at input 0 (front: 5).
11 | network_0/router_level1_21 |   Requesting output 8.0 (non-spec, pri: 0).
11 | network_0/router_level1_21/sw_allocator | Input requests = [ 0 -> [ 8@0 ]  3 -> [ 9@0 ]  ], output requests = [ 8 -> [ 0@0 ]  9 -> [ 3@0 ]  ].
11 | network_0/router_level1_21/sw_allocator | Input grants = [ 0 -> 8  3 -> 9  ], output grants = [ 8 -> 0  9 -> 3  ].
11 | network_0/router_level1_21 | Assigning output 8.0 to VC 0 at input 0.0.
11 | network_0/router_level1_21 | Completed switch allocation for VC 0 at input 0 (front: 5).
11 | network_0/router_level1_21 |   Scheduling switch connection from input 0.0 to output 8.0.
11 | network_0/router_level1_21 | Updating lookahead routing information for flit 5.
11 | network_0/router_level1_28 | Beginning switch allocation for VC 0 at input 0 (front: 2).
11 | network_0/router_level1_28 |   Requesting output 8.0 (non-spec, pri: 0).
11 | network_0/router_level1_28/sw_allocator | Input requests = [ 0 -> [ 8@0 ]  ], output requests = [ 8 -> [ 0@0 ]  ].
11 | network_0/router_level1_28/sw_allocator | Input grants = [ 0 -> 8  ], output grants = [ 8 -> 0  ].
11 | network_0/router_level1_28 | Assigning output 8.0 to VC 0 at input 0.0.
11 | network_0/router_level1_28 | Completed switch allocation for VC 0 at input 0 (front: 2).
11 | network_0/router_level1_28 |   Scheduling switch connection from input 0.0 to output 8.0.
[...]
27 | network_0/router_level3_503 |   Requesting output 5.0 (non-spec, pri: 0).
27 | network_0/router_level3_503/sw_allocator | Input requests = [ 2 -> [ 10@0 ]  9 -> [ 0@0 ]  11 -> [ 5@0 ]  ], output requests = [ 0 -> [ 9@0 ]  5 -> [ 11@0 ]  10 -> [ 2@0 ]  ].
27 | network_0/router_level3_503/sw_allocator | Input grants = [ 2 -> 10  9 -> 0  11 -> 5  ], output grants = [ 0 -> 9  5 -> 11  10 -> 2  ].
27 | network_0/router_level3_503 | Assigning output 0.0 to VC 0 at input 9.0.
27 | network_0/router_level3_503 | Assigning output 5.0 to VC 0 at input 11.0.
27 | network_0/router_level3_503 | Completed switch allocation for VC 0 at input 9 (front: 8).
27 | network_0/router_level3_503 |   Scheduling switch connection from input 9.0 to output 0.0.
27 | network_0/router_level3_503 | Completed switch allocation for VC 0 at input 11 (front: 7).
27 | network_0/router_level3_503 |   Scheduling switch connection from input 11.0 to output 5.0.
27 | network_0/router_level3_504 | Beginning switch allocation for VC 0 at input 9 (front: 6).
27 | network_0/router_level3_504 |   Requesting output 1.0 (non-spec, pri: 0).
27 | network_0/router_level3_504/sw_allocator | Input requests = [ 6 -> [ 9@0 ]  9 -> [ 1@0 ]  ], output requests = [ 1 -> [ 9@0 ]  9 -> [ 6@0 ]  ].
27 | network_0/router_level3_504/sw_allocator | Input grants = [ 6 -> 9  9 -> 1  ], output grants = [ 1 -> 9  9 -> 6  ].
27 | network_0/router_level3_504 | Assigning output 1.0 to VC 0 at input 9.0.
27 | network_0/router_level3_504 | Completed switch allocation for VC 0 at input 9 (front: 6).
27 | network_0/router_level3_504 |   Scheduling switch connection from input 9.0 to output 1.0.
27 | network_0/router_level3_505 | Beginning switch allocation for VC 0 at input 11 (front: 4).
27 | network_0/router_level3_505 |   Requesting output 2.0 (non-spec, pri: 0).
27 | network_0/router_level3_505 | Beginning switch allocation for VC 0 at input 13 (front: 5).
27 | network_0/router_level3_505 |   Requesting output 1.0 (non-spec, pri: 0).
27 | network_0/router_level3_505/sw_allocator | Input requests = [ 3 -> [ 12@0 ]  5 -> [ 8@0 ]  11 -> [ 2@0 ]  13 -> [ 1@0 ]  ], output requests = [ 1 -> [ 13@0 ]  2 -> [ 11@0 ]  8 -> [ 5@0 ]  12 -> [ 3@0 ]  ].
27 | network_0/router_level3_505/sw_allocator | Input grants = [ 3 -> 12  5 -> 8  11 -> 2  13 -> 1  ], output grants = [ 1 -> 13  2 -> 11  8 -> 5  12 -> 3  ].
27 | network_0/router_level3_505 | Assigning output 2.0 to VC 0 at input 11.0.
27 | network_0/router_level3_505 | Assigning output 1.0 to VC 0 at input 13.0.
27 | network_0/router_level3_505 | Completed switch allocation for VC 0 at input 11 (front: 4).
27 | network_0/router_level3_505 |   Scheduling switch connection from input 11.0 to output 2.0.
27 | network_0/router_level3_505 | Completed switch allocation for VC 0 at input 13 (front: 5).
27 | network_0/router_level3_505 |   Scheduling switch connection from input 13.0 to output 1.0.
27 | network_0/router_level3_506 | Beginning switch allocation for VC 0 at input 11 (front: 3).
27 | network_0/router_level3_506 |   Requesting output 0.0 (non-spec, pri: 0).
27 | network_0/router_level3_506/sw_allocator | Input requests = [ 1 -> [ 15@0 ]  3 -> [ 9@0 ]  4 -> [ 10@0 ]  11 -> [ 0@0 ]  ], output requests = [ 0 -> [ 11@0 ]  9 -> [ 3@0 ]  10 -> [ 4@0 ]  15 -> [ 1@0 ]  ].
27 | network_0/router_level3_506/sw_allocator | Input grants = [ 1 -> 15  3 -> 9  4 -> 10  11 -> 0  ], output grants = [ 0 -> 11  9 -> 3  10 -> 4  15 -> 1  ].
27 | network_0/router_level3_506 | Assigning output 0.0 to VC 0 at input 11.0.
27 | network_0/router_level3_506 | Completed switch allocation for VC 0 at input 11 (front: 3).
27 | network_0/router_level3_506 |   Scheduling switch connection from input 11.0 to output 0.0.
27 | network_0/router_level3_507 | Beginning switch allocation for VC 0 at input 12 (front: 2).
27 | network_0/router_level3_507 |   Requesting output 5.0 (non-spec, pri: 0).
27 | network_0/router_level3_507/sw_allocator | Input requests = [ 12 -> [ 5@0 ]  ], output requests = [ 5 -> [ 12@0 ]  ].
27 | network_0/router_level3_507/sw_allocator | Input grants = [ 12 -> 5  ], output grants = [ 5 -> 12  ].
27 | network_0/router_level3_507 | Assigning output 5.0 to VC 0 at input 12.0.
27 | network_0/router_level3_507 | Completed switch allocation for VC 0 at input 12 (front: 2).
27 | network_0/router_level3_507 |   Scheduling switch connection from input 12.0 to output 5.0.
27 | network_0/router_level3_510 | Beginning switch allocation for VC 0 at input 14 (front: 1).
27 | network_0/router_level3_510 |   Requesting output 0.0 (non-spec, pri: 0).
27 | network_0/router_level3_510/sw_allocator | Input requests = [ 1 -> [ 9@0 ]  7 -> [ 14@0 ]  12 -> [ 2@0 ]  14 -> [ 0@0 ]  ], output requests = [ 0 -> [ 14@0 ]  2 -> [ 12@0 ]  9 -> [ 1@0 ]  14 -> [ 7@0 ]  ].
27 | network_0/router_level3_510/sw_allocator | Input grants = [ 1 -> 9  7 -> 14  12 -> 2  14 -> 0  ], output grants = [ 0 -> 14  2 -> 12  9 -> 1  14 -> 7  ].
27 | network_0/router_level3_510 | Assigning output 0.0 to VC 0 at input 14.0.
27 | network_0/router_level3_510 | Completed switch allocation for VC 0 at input 14 (front: 1).
27 | network_0/router_level3_510 |   Scheduling switch connection from input 14.0 to output 0.0.
28 | network_0/router_level3_502 | Beginning crossbar traversal for flit 9 from input 13.0 to output 2.0.
28 | network_0/router_level3_502 | Beginning crossbar traversal for flit 10 from input 15.0 to output 1.0.
28 | network_0/router_level3_502 | Completed crossbar traversal for flit 9 from input 13.0 to output 2.0.
28 | network_0/router_level3_502 | Buffering flit 9 at output 2.
28 | network_0/router_level3_502 | Completed crossbar traversal for flit 10 from input 15.0 to output 1.0.
28 | network_0/router_level3_502 | Buffering flit 10 at output 1.
28 | network_0/router_level3_503 | Beginning crossbar traversal for flit 8 from input 9.0 to output 0.0.
28 | network_0/router_level3_503 | Beginning crossbar traversal for flit 7 from input 11.0 to output 5.0.
28 | network_0/router_level3_503 | Completed crossbar traversal for flit 8 from input 9.0 to output 0.0.
28 | network_0/router_level3_503 | Buffering flit 8 at output 0.
28 | network_0/router_level3_503 | Completed crossbar traversal for flit 7 from input 11.0 to output 5.0.
28 | network_0/router_level3_503 | Buffering flit 7 at output 5.
28 | network_0/router_level3_504 | Beginning crossbar traversal for flit 6 from input 9.0 to output 1.0.
28 | network_0/router_level3_504 | Completed crossbar traversal for flit 6 from input 9.0 to output 1.0.
28 | network_0/router_level3_504 | Buffering flit 6 at output 1.
28 | network_0/router_level3_505 | Beginning crossbar traversal for flit 4 from input 11.0 to output 2.0.
28 | network_0/router_level3_505 | Beginning crossbar traversal for flit 5 from input 13.0 to output 1.0.
28 | network_0/router_level3_505 | Completed crossbar traversal for flit 4 from input 11.0 to output 2.0.
28 | network_0/router_level3_505 | Buffering flit 4 at output 2.
28 | network_0/router_level3_505 | Completed crossbar traversal for flit 5 from input 13.0 to output 1.0.
28 | network_0/router_level3_505 | Buffering flit 5 at output 1.
28 | network_0/router_level3_506 | Beginning crossbar traversal for flit 3 from input 11.0 to output 0.0.
28 | network_0/router_level3_506 | Completed crossbar traversal for flit 3 from input 11.0 to output 0.0.
28 | network_0/router_level3_506 | Buffering flit 3 at output 0.
28 | network_0/router_level3_507 | Beginning crossbar traversal for flit 2 from input 12.0 to output 5.0.
28 | network_0/router_level3_507 | Completed crossbar traversal for flit 2 from input 12.0 to output 5.0.
28 | network_0/router_level3_507 | Buffering flit 2 at output 5.
28 | network_0/router_level3_510 | Beginning crossbar traversal for flit 1 from input 14.0 to output 0.0.
28 | network_0/router_level3_510 | Completed crossbar traversal for flit 1 from input 14.0 to output 0.0.
28 | network_0/router_level3_510 | Buffering flit 1 at output 0.
28 | network_0/router_level3_502 | Sending flit 10 to channel at output 1.
28 | network_0/router_level3_502 | Sending flit 9 to channel at output 2.
28 | network_0/router_level3_503 | Sending flit 8 to channel at output 0.
28 | network_0/router_level3_503 | Sending flit 7 to channel at output 5.
28 | network_0/router_level3_504 | Sending flit 6 to channel at output 1.
28 | network_0/router_level3_505 | Sending flit 5 to channel at output 1.
28 | network_0/router_level3_505 | Sending flit 4 to channel at output 2.
28 | network_0/router_level3_506 | Sending flit 3 to channel at output 0.
28 | network_0/router_level3_507 | Sending flit 2 to channel at output 5.
28 | network_0/router_level3_510 | Sending flit 1 to channel at output 0.
29 | network_0/network_0_fchan_egress4017 | Beginning channel traversal for flit 10 with delay 1.
29 | network_0/network_0_fchan_egress4018 | Beginning channel traversal for flit 9 with delay 1.
29 | network_0/network_0_fchan_egress4024 | Beginning channel traversal for flit 8 with delay 1.
29 | network_0/network_0_fchan_egress4029 | Beginning channel traversal for flit 7 with delay 1.
29 | network_0/network_0_fchan_egress4033 | Beginning channel traversal for flit 6 with delay 1.
29 | network_0/network_0_fchan_egress4041 | Beginning channel traversal for flit 5 with delay 1.
29 | network_0/network_0_fchan_egress4042 | Beginning channel traversal for flit 4 with delay 1.
29 | network_0/network_0_fchan_egress4048 | Beginning channel traversal for flit 3 with delay 1.
29 | network_0/network_0_fchan_egress4061 | Beginning channel traversal for flit 2 with delay 1.
29 | network_0/network_0_fchan_egress4080 | Beginning channel traversal for flit 1 with delay 1.
29 | network_0/network_0_fchan_egress4017 | Completed channel traversal for flit 10.
29 | network_0/network_0_fchan_egress4018 | Completed channel traversal for flit 9.
29 | network_0/network_0_fchan_egress4024 | Completed channel traversal for flit 8.
29 | network_0/network_0_fchan_egress4029 | Completed channel traversal for flit 7.
29 | network_0/network_0_fchan_egress4033 | Completed channel traversal for flit 6.
29 | network_0/network_0_fchan_egress4041 | Completed channel traversal for flit 5.
29 | network_0/network_0_fchan_egress4042 | Completed channel traversal for flit 4.
29 | network_0/network_0_fchan_egress4048 | Completed channel traversal for flit 3.
29 | network_0/network_0_fchan_egress4061 | Completed channel traversal for flit 2.
29 | network_0/network_0_fchan_egress4080 | Completed channel traversal for flit 1.
30 | node4017 | Ejecting flit 10 (packet 10) from VC 0.
30 | node4018 | Ejecting flit 9 (packet 9) from VC 0.
30 | node4024 | Ejecting flit 8 (packet 8) from VC 0.
30 | node4029 | Ejecting flit 7 (packet 7) from VC 0.
30 | node4033 | Ejecting flit 6 (packet 6) from VC 0.
30 | node4041 | Ejecting flit 5 (packet 5) from VC 0.
30 | node4042 | Ejecting flit 4 (packet 4) from VC 0.
30 | node4048 | Ejecting flit 3 (packet 3) from VC 0.
30 | node4061 | Ejecting flit 2 (packet 2) from VC 0.
30 | node4080 | Ejecting flit 1 (packet 1) from VC 0.
30 | node4017 | Injecting credit for VC 0 into subnet 0.
30 | node4017 | Retiring flit 10 (packet 10, src = 78, dest = 4017, hops = 7, flat = 30).
30 | node4017 | Retiring packet 10 (plat = 30, nlat = 30, frag = 0, src = 78, dest = 4017).
30 | node4018 | Injecting credit for VC 0 into subnet 0.
30 | node4018 | Retiring flit 9 (packet 9, src = 77, dest = 4018, hops = 7, flat = 30).
30 | node4018 | Retiring packet 9 (plat = 30, nlat = 30, frag = 0, src = 77, dest = 4018).
30 | node4024 | Injecting credit for VC 0 into subnet 0.
30 | node4024 | Retiring flit 8 (packet 8, src = 71, dest = 4024, hops = 7, flat = 30).
30 | node4024 | Retiring packet 8 (plat = 30, nlat = 30, frag = 0, src = 71, dest = 4024).
30 | node4029 | Injecting credit for VC 0 into subnet 0.
30 | node4029 | Retiring flit 7 (packet 7, src = 66, dest = 4029, hops = 7, flat = 30).
30 | node4029 | Retiring packet 7 (plat = 30, nlat = 30, frag = 0, src = 66, dest = 4029).
30 | node4033 | Injecting credit for VC 0 into subnet 0.
30 | node4033 | Retiring flit 6 (packet 6, src = 62, dest = 4033, hops = 7, flat = 30).
30 | node4033 | Retiring packet 6 (plat = 30, nlat = 30, frag = 0, src = 62, dest = 4033).
30 | node4041 | Injecting credit for VC 0 into subnet 0.
30 | node4041 | Retiring flit 5 (packet 5, src = 54, dest = 4041, hops = 7, flat = 30).
30 | node4041 | Retiring packet 5 (plat = 30, nlat = 30, frag = 0, src = 54, dest = 4041).
30 | node4042 | Injecting credit for VC 0 into subnet 0.
30 | node4042 | Retiring flit 4 (packet 4, src = 53, dest = 4042, hops = 7, flat = 30).
30 | node4042 | Retiring packet 4 (plat = 30, nlat = 30, frag = 0, src = 53, dest = 4042).
30 | node4048 | Injecting credit for VC 0 into subnet 0.
30 | node4048 | Retiring flit 3 (packet 3, src = 47, dest = 4048, hops = 7, flat = 30).
30 | node4048 | Retiring packet 3 (plat = 30, nlat = 30, frag = 0, src = 47, dest = 4048).
30 | node4061 | Injecting credit for VC 0 into subnet 0.
30 | node4061 | Retiring flit 2 (packet 2, src = 34, dest = 4061, hops = 7, flat = 30).
30 | node4061 | Retiring packet 2 (plat = 30, nlat = 30, frag = 0, src = 34, dest = 4061).
30 | node4080 | Injecting credit for VC 0 into subnet 0.
30 | node4080 | Retiring flit 1 (packet 1, src = 15, dest = 4080, hops = 7, flat = 30).
30 | node4080 | Retiring packet 1 (plat = 30, nlat = 30, frag = 0, src = 15, dest = 4080).
Class 0:
Packet latency average = 33.3621
	minimum = 30
	maximum = 106
Network latency average = 33.3621
	minimum = 30
	maximum = 106
Slowest packet = 234167
Flit latency average = 33.3621
	minimum = 30
	maximum = 106
Slowest flit = 234167
Fragmentation average = 0
	minimum = 0
	maximum = 0
Injected packet rate average = 0.199756
	minimum = 0.161 (at node 1346)
	maximum = 0.248 (at node 3108)
Accepted packet rate average = 0.193013
	minimum = 0.152 (at node 613)
	maximum = 0.241 (at node 987)
Injected flit rate average = 0.199756
	minimum = 0.161 (at node 1346)
	maximum = 0.248 (at node 3108)
Accepted flit rate average= 0.193013
	minimum = 0.152 (at node 613)
	maximum = 0.241 (at node 987)
Injected packet length average = 1
Accepted packet length average = 1
Total in-flight flits = 27617 (0 measured)
latency change    = 1
throughput change = 1
Class 0:
Packet latency average = 33.4577
	minimum = 30
	maximum = 113
Network latency average = 33.4577
	minimum = 30
	maximum = 113
Slowest packet = 1068603
Flit latency average = 33.4577
	minimum = 30
	maximum = 113
Slowest flit = 1068603
Fragmentation average = 0
	minimum = 0
	maximum = 0
Injected packet rate average = 0.199976
	minimum = 0.1695 (at node 3875)
	maximum = 0.2305 (at node 2521)
Accepted packet rate average = 0.196651
	minimum = 0.166 (at node 220)
	maximum = 0.227 (at node 1574)
Injected flit rate average = 0.199976
	minimum = 0.1695 (at node 3875)
	maximum = 0.2305 (at node 2521)
Accepted flit rate average= 0.196651
	minimum = 0.166 (at node 220)
	maximum = 0.227 (at node 1574)
Injected packet length average = 1
Accepted packet length average = 1
Total in-flight flits = 27234 (0 measured)
latency change    = 0.00285897
throughput change = 0.0184988
Class 0:
Packet latency average = 33.5035
	minimum = 30
	maximum = 116
Network latency average = 33.5035
	minimum = 30
	maximum = 116
Slowest packet = 1845735
Flit latency average = 33.5035
	minimum = 30
	maximum = 116
Slowest flit = 1845735
Fragmentation average = 0
	minimum = 0
	maximum = 0
Injected packet rate average = 0.200138
	minimum = 0.15 (at node 835)
	maximum = 0.248 (at node 1882)
Accepted packet rate average = 0.200088
	minimum = 0.147 (at node 1928)
	maximum = 0.252 (at node 2213)
Injected flit rate average = 0.200138
	minimum = 0.15 (at node 835)
	maximum = 0.248 (at node 1882)
Accepted flit rate average= 0.200088
	minimum = 0.147 (at node 1928)
	maximum = 0.252 (at node 2213)
Injected packet length average = 1
Accepted packet length average = 1
Total in-flight flits = 27440 (0 measured)
latency change    = 0.00136772
throughput change = 0.0171757
Warmed up ...Time used is 3000 cycles
Class 0:
Packet latency average = 33.4315
	minimum = 30
	maximum = 122
Network latency average = 33.4315
	minimum = 30
	maximum = 122
Slowest packet = 2661550
Flit latency average = 33.453
	minimum = 30
	maximum = 122
Slowest flit = 2661550
Fragmentation average = 0
	minimum = 0
	maximum = 0
Injected packet rate average = 0.199811
	minimum = 0.152 (at node 1256)
	maximum = 0.243 (at node 2805)
Accepted packet rate average = 0.199864
	minimum = 0.156 (at node 740)
	maximum = 0.245 (at node 1290)
Injected flit rate average = 0.199811
	minimum = 0.152 (at node 1256)
	maximum = 0.243 (at node 2805)
Accepted flit rate average= 0.199864
	minimum = 0.156 (at node 740)
	maximum = 0.245 (at node 1290)
Injected packet length average = 1
Accepted packet length average = 1
Total in-flight flits = 27223 (27223 measured)
latency change    = 0.00215557
throughput change = 0.00112259
Class 0:
Packet latency average = 33.451
	minimum = 30
	maximum = 122
Network latency average = 33.451
	minimum = 30
	maximum = 122
Slowest packet = 2661550
Flit latency average = 33.4614
	minimum = 30
	maximum = 122
Slowest flit = 2661550
Fragmentation average = 0
	minimum = 0
	maximum = 0
Injected packet rate average = 0.20005
	minimum = 0.1695 (at node 3448)
	maximum = 0.2305 (at node 3336)
Accepted packet rate average = 0.200074
	minimum = 0.1695 (at node 3713)
	maximum = 0.231 (at node 759)
Injected flit rate average = 0.20005
	minimum = 0.1695 (at node 3448)
	maximum = 0.2305 (at node 3336)
Accepted flit rate average= 0.200074
	minimum = 0.1695 (at node 3713)
	maximum = 0.231 (at node 759)
Injected packet length average = 1
Accepted packet length average = 1
Total in-flight flits = 27239 (27239 measured)
latency change    = 0.000583379
throughput change = 0.00105369
Class 0:
Packet latency average = 33.4652
	minimum = 30
	maximum = 122
Network latency average = 33.4652
	minimum = 30
	maximum = 122
Slowest packet = 2661550
Flit latency average = 33.472
	minimum = 30
	maximum = 122
Slowest flit = 2661550
Fragmentation average = 0
	minimum = 0
	maximum = 0
Injected packet rate average = 0.200121
	minimum = 0.175667 (at node 2159)
	maximum = 0.222667 (at node 3100)
Accepted packet rate average = 0.200112
	minimum = 0.175333 (at node 1936)
	maximum = 0.226 (at node 995)
Injected flit rate average = 0.200121
	minimum = 0.175667 (at node 2159)
	maximum = 0.222667 (at node 3100)
Accepted flit rate average= 0.200112
	minimum = 0.175333 (at node 1936)
	maximum = 0.226 (at node 995)
Injected packet length average = 1
Accepted packet length average = 1
Total in-flight flits = 27550 (27550 measured)
latency change    = 0.000426024
throughput change = 0.000189306
Draining all recorded packets ...
Draining remaining packets ...
Time taken is 6126 cycles
====== Overall Traffic Statistics ======
====== Traffic class 0 ======
Packet latency average = 33.4734 (1 samples)
	minimum = 30 (1 samples)
	maximum = 122 (1 samples)
Network latency average = 33.4734 (1 samples)
	minimum = 30 (1 samples)
	maximum = 122 (1 samples)
Flit latency average = 33.4768 (1 samples)
	minimum = 30 (1 samples)
	maximum = 122 (1 samples)
Fragmentation average = 0 (1 samples)
	minimum = 0 (1 samples)
	maximum = 0 (1 samples)
Injected packet rate average = 0.200121 (1 samples)
	minimum = 0.175667 (1 samples)
	maximum = 0.222667 (1 samples)
Accepted packet rate average = 0.200112 (1 samples)
	minimum = 0.175333 (1 samples)
	maximum = 0.226 (1 samples)
Injected flit rate average = 0.200121 (1 samples)
	minimum = 0.175667 (1 samples)
	maximum = 0.222667 (1 samples)
Accepted flit rate average = 0.200112 (1 samples)
	minimum = 0.175333 (1 samples)
	maximum = 0.226 (1 samples)
Injected packet size average = 1 (1 samples)
Accepted packet size average = 1 (1 samples)
Hops average = 7 (1 samples)
Total run time 561.173
