BEGIN Configuration File: examples/fattree_config_0.40_2_transpose
// $Id: dragonflyconfig 3555 2011-05-16 23:37:55Z dub $

// Copyright (c) 2007-2015, Trustees of The Leland Stanford Junior University
// All rights reserved.
//
// Redistribution and use in source and binary forms, with or without
// modification, are permitted provided that the following conditions are met:
//
// Redistributions of source code must retain the above copyright notice, this
// list of conditions and the following disclaimer.
// Redistributions in binary form must reproduce the above copyright notice,
// this list of conditions and the following disclaimer in the documentation
// and/or other materials provided with the distribution.
//
// THIS SOFTWARE IS PROVIDED BY THE COPYRIGHT HOLDERS AND CONTRIBUTORS "AS IS"
// AND ANY EXPRESS OR IMPLIED WARRANTIES, INCLUDING, BUT NOT LIMITED TO, THE
// IMPLIED WARRANTIES OF MERCHANTABILITY AND FITNESS FOR A PARTICULAR PURPOSE
// ARE DISCLAIMED. IN NO EVENT SHALL THE COPYRIGHT OWNER OR CONTRIBUTORS BE
// LIABLE FOR ANY DIRECT, INDIRECT, INCIDENTAL, SPECIAL, EXEMPLARY, OR
// CONSEQUENTIAL DAMAGES (INCLUDING, BUT NOT LIMITED TO, PROCUREMENT OF
// SUBSTITUTE GOODS OR SERVICES; LOSS OF USE, DATA, OR PROFITS; OR BUSINESS
// INTERRUPTION) HOWEVER CAUSED AND ON ANY THEORY OF LIABILITY, WHETHER IN
// CONTRACT, STRICT LIABILITY, OR TORT (INCLUDING NEGLIGENCE OR OTHERWISE)
// ARISING IN ANY WAY OUT OF THE USE OF THIS SOFTWARE, EVEN IF ADVISED OF THE
// POSSIBILITY OF SUCH DAMAGE.


hold_switch_for_packet=1;

vc_buf_size = 16;


wait_for_tail_credit = 0;

//
// Router architecture
//
vc_allocator = separable_input_first; 
sw_allocator = separable_input_first;
alloc_iters  = 1;

credit_delay   = 2;
routing_delay  = 0;
vc_alloc_delay = 1;
sw_alloc_delay = 1;
st_final_delay = 1;

input_speedup     = 1;
output_speedup    = 1;
internal_speedup  = 1.0;


warmup_periods = 3;
sim_count          = 1;

sample_period  = 1000;  

routing_function = nca;
num_vcs     = 4;

priority = none;
traffic = transpose;


injection_rate = 0.40;
packet_size = 1;
injection_rate_uses_flits=1;

topology = fattree;

k  = 8;
n  = 4;
t = 2;

watch_file = watchfile.txt;
watch_out=-;
stats_out = examples/fattree_config_0.40_2_transpose.m;

END Configuration File: examples/fattree_config_0.40_2_transpose
Fat Tree
 k = 8 levels = 4
 each switch - total radix =  16
 # of switches = 2048
 # of channels = 24576
 # of nodes ( size of network ) = 4096
 tapering factor = 2
0 | node11 | Enqueuing flit 1 (packet 1) at time 0.
0 | node12 | Enqueuing flit 2 (packet 2) at time 0.
0 | node13 | Enqueuing flit 3 (packet 3) at time 0.
0 | node14 | Enqueuing flit 4 (packet 4) at time 0.
0 | node15 | Enqueuing flit 5 (packet 5) at time 0.
0 | node18 | Enqueuing flit 6 (packet 6) at time 0.
0 | node19 | Enqueuing flit 7 (packet 7) at time 0.
0 | node20 | Enqueuing flit 8 (packet 8) at time 0.
0 | node30 | Enqueuing flit 9 (packet 9) at time 0.
0 | node31 | Enqueuing flit 10 (packet 10) at time 0.
0 | traffic_manager | Finding output VC for flit 1:
0 | traffic_manager |   Selected output VC 0.
0 | node11 | Generating lookahead routing info for flit 1.
0 | node11 | Injecting flit 1 into subnet 0 at time 0 with priority 0.
0 | traffic_manager | Finding output VC for flit 2:
0 | traffic_manager |   Selected output VC 0.
0 | node12 | Generating lookahead routing info for flit 2.
0 | node12 | Injecting flit 2 into subnet 0 at time 0 with priority 0.
0 | traffic_manager | Finding output VC for flit 3:
0 | traffic_manager |   Selected output VC 0.
0 | node13 | Generating lookahead routing info for flit 3.
0 | node13 | Injecting flit 3 into subnet 0 at time 0 with priority 0.
0 | traffic_manager | Finding output VC for flit 4:
0 | traffic_manager |   Selected output VC 0.
0 | node14 | Generating lookahead routing info for flit 4.
0 | node14 | Injecting flit 4 into subnet 0 at time 0 with priority 0.
0 | traffic_manager | Finding output VC for flit 5:
0 | traffic_manager |   Selected output VC 0.
0 | node15 | Generating lookahead routing info for flit 5.
0 | node15 | Injecting flit 5 into subnet 0 at time 0 with priority 0.
0 | traffic_manager | Finding output VC for flit 6:
0 | traffic_manager |   Selected output VC 0.
0 | node18 | Generating lookahead routing info for flit 6.
0 | node18 | Injecting flit 6 into subnet 0 at time 0 with priority 0.
0 | traffic_manager | Finding output VC for flit 7:
0 | traffic_manager |   Selected output VC 0.
0 | node19 | Generating lookahead routing info for flit 7.
0 | node19 | Injecting flit 7 into subnet 0 at time 0 with priority 0.
0 | traffic_manager | Finding output VC for flit 8:
0 | traffic_manager |   Selected output VC 0.
0 | node20 | Generating lookahead routing info for flit 8.
0 | node20 | Injecting flit 8 into subnet 0 at time 0 with priority 0.
0 | traffic_manager | Finding output VC for flit 9:
0 | traffic_manager |   Selected output VC 0.
0 | node30 | Generating lookahead routing info for flit 9.
0 | node30 | Injecting flit 9 into subnet 0 at time 0 with priority 0.
0 | traffic_manager | Finding output VC for flit 10:
0 | traffic_manager |   Selected output VC 0.
0 | node31 | Generating lookahead routing info for flit 10.
0 | node31 | Injecting flit 10 into subnet 0 at time 0 with priority 0.
1 | network_0/network_0_fchan_ingress11 | Beginning channel traversal for flit 1 with delay 1.
1 | network_0/network_0_fchan_ingress12 | Beginning channel traversal for flit 2 with delay 1.
1 | network_0/network_0_fchan_ingress13 | Beginning channel traversal for flit 3 with delay 1.
1 | network_0/network_0_fchan_ingress14 | Beginning channel traversal for flit 4 with delay 1.
1 | network_0/network_0_fchan_ingress15 | Beginning channel traversal for flit 5 with delay 1.
1 | network_0/network_0_fchan_ingress18 | Beginning channel traversal for flit 6 with delay 1.
1 | network_0/network_0_fchan_ingress19 | Beginning channel traversal for flit 7 with delay 1.
1 | network_0/network_0_fchan_ingress20 | Beginning channel traversal for flit 8 with delay 1.
1 | network_0/network_0_fchan_ingress30 | Beginning channel traversal for flit 9 with delay 1.
1 | network_0/network_0_fchan_ingress31 | Beginning channel traversal for flit 10 with delay 1.
1 | network_0/network_0_fchan_ingress11 | Completed channel traversal for flit 1.
1 | network_0/network_0_fchan_ingress12 | Completed channel traversal for flit 2.
1 | network_0/network_0_fchan_ingress13 | Completed channel traversal for flit 3.
1 | network_0/network_0_fchan_ingress14 | Completed channel traversal for flit 4.
1 | network_0/network_0_fchan_ingress15 | Completed channel traversal for flit 5.
1 | network_0/network_0_fchan_ingress18 | Completed channel traversal for flit 6.
1 | network_0/network_0_fchan_ingress19 | Completed channel traversal for flit 7.
1 | network_0/network_0_fchan_ingress20 | Completed channel traversal for flit 8.
1 | network_0/network_0_fchan_ingress30 | Completed channel traversal for flit 9.
1 | network_0/network_0_fchan_ingress31 | Completed channel traversal for flit 10.
2 | network_0/router_level3_1 | Received flit 1 from channel at input 3.
2 | network_0/router_level3_1 | Received flit 2 from channel at input 4.
2 | network_0/router_level3_1 | Received flit 3 from channel at input 5.
2 | network_0/router_level3_1 | Received flit 4 from channel at input 6.
2 | network_0/router_level3_1 | Received flit 5 from channel at input 7.
2 | network_0/router_level3_2 | Received flit 6 from channel at input 2.
2 | network_0/router_level3_2 | Received flit 7 from channel at input 3.
2 | network_0/router_level3_2 | Received flit 8 from channel at input 4.
2 | network_0/router_level3_3 | Received flit 9 from channel at input 6.
2 | network_0/router_level3_3 | Received flit 10 from channel at input 7.
2 | network_0/router_level3_1 | Adding flit 1 to VC 0 at input 3 (state: idle, empty).
2 | network_0/router_level3_1 | Using precomputed lookahead routing information for VC 0 at input 3 (front: 1).
2 | network_0/router_level3_1/buf_3/vc_0 | Changing state from idle to vc_alloc.
2 | network_0/router_level3_1 | Adding flit 2 to VC 0 at input 4 (state: idle, empty).
2 | network_0/router_level3_1 | Using precomputed lookahead routing information for VC 0 at input 4 (front: 2).
2 | network_0/router_level3_1/buf_4/vc_0 | Changing state from idle to vc_alloc.
2 | network_0/router_level3_1 | Adding flit 3 to VC 0 at input 5 (state: idle, empty).
2 | network_0/router_level3_1 | Using precomputed lookahead routing information for VC 0 at input 5 (front: 3).
2 | network_0/router_level3_1/buf_5/vc_0 | Changing state from idle to vc_alloc.
2 | network_0/router_level3_1 | Adding flit 4 to VC 0 at input 6 (state: idle, empty).
2 | network_0/router_level3_1 | Using precomputed lookahead routing information for VC 0 at input 6 (front: 4).
2 | network_0/router_level3_1/buf_6/vc_0 | Changing state from idle to vc_alloc.
2 | network_0/router_level3_1 | Adding flit 5 to VC 0 at input 7 (state: idle, empty).
2 | network_0/router_level3_1 | Using precomputed lookahead routing information for VC 0 at input 7 (front: 5).
2 | network_0/router_level3_1/buf_7/vc_0 | Changing state from idle to vc_alloc.
2 | network_0/router_level3_1 | Beginning VC allocation for VC 0 at input 3 (front: 1).
2 | network_0/router_level3_1 |   Requesting VC 0 at output 9 (in_pri: 0, out_pri: 0).
2 | network_0/router_level3_1 |   Requesting VC 1 at output 9 (in_pri: 0, out_pri: 0).
2 | network_0/router_level3_1 |   Requesting VC 2 at output 9 (in_pri: 0, out_pri: 0).
2 | network_0/router_level3_1 |   Requesting VC 3 at output 9 (in_pri: 0, out_pri: 0).
2 | network_0/router_level3_1 | Beginning VC allocation for VC 0 at input 4 (front: 2).
2 | network_0/router_level3_1 |   Requesting VC 0 at output 13 (in_pri: 0, out_pri: 0).
2 | network_0/router_level3_1 |   Requesting VC 1 at output 13 (in_pri: 0, out_pri: 0).
2 | network_0/router_level3_1 |   Requesting VC 2 at output 13 (in_pri: 0, out_pri: 0).
2 | network_0/router_level3_1 |   Requesting VC 3 at output 13 (in_pri: 0, out_pri: 0).
2 | network_0/router_level3_1 | Beginning VC allocation for VC 0 at input 5 (front: 3).
2 | network_0/router_level3_1 |   Requesting VC 0 at output 11 (in_pri: 0, out_pri: 0).
2 | network_0/router_level3_1 |   Requesting VC 1 at output 11 (in_pri: 0, out_pri: 0).
2 | network_0/router_level3_1 |   Requesting VC 2 at output 11 (in_pri: 0, out_pri: 0).
2 | network_0/router_level3_1 |   Requesting VC 3 at output 11 (in_pri: 0, out_pri: 0).
2 | network_0/router_level3_1 | Beginning VC allocation for VC 0 at input 6 (front: 4).
2 | network_0/router_level3_1 |   Requesting VC 0 at output 12 (in_pri: 0, out_pri: 0).
2 | network_0/router_level3_1 |   Requesting VC 1 at output 12 (in_pri: 0, out_pri: 0).
2 | network_0/router_level3_1 |   Requesting VC 2 at output 12 (in_pri: 0, out_pri: 0).
2 | network_0/router_level3_1 |   Requesting VC 3 at output 12 (in_pri: 0, out_pri: 0).
2 | network_0/router_level3_1 | Beginning VC allocation for VC 0 at input 7 (front: 5).
2 | network_0/router_level3_1 |   Requesting VC 0 at output 11 (in_pri: 0, out_pri: 0).
2 | network_0/router_level3_1 |   Requesting VC 1 at output 11 (in_pri: 0, out_pri: 0).
2 | network_0/router_level3_1 |   Requesting VC 2 at output 11 (in_pri: 0, out_pri: 0).
2 | network_0/router_level3_1 |   Requesting VC 3 at output 11 (in_pri: 0, out_pri: 0).
2 | network_0/router_level3_1/vc_allocator | Input requests = [ 4 -> [ 48@0 49@0 50@0 51@0 ]  12 -> [ 36@0 37@0 38@0 39@0 ]  16 -> [ 52@0 53@0 54@0 55@0 ]  20 -> [ 44@0 45@0 46@0 47@0 ]  24 -> [ 48@0 49@0 50@0 51@0 ]  28 -> [ 44@0 45@0 46@0 47@0 ]  ], output requests = [ 36 -> [ 12@0 ]  37 -> [ 12@0 ]  38 -> [ 12@0 ]  39 -> [ 12@0 ]  44 -> [ 20@0 28@0 ]  45 -> [ 20@0 28@0 ]  46 -> [ 20@0 28@0 ]  47 -> [ 20@0 28@0 ]  48 -> [ 4@0 24@0 ]  49 -> [ 4@0 24@0 ]  50 -> [ 4@0 24@0 ]  51 -> [ 4@0 24@0 ]  52 -> [ 16@0 ]  53 -> [ 16@0 ]  54 -> [ 16@0 ]  55 -> [ 16@0 ]  ].
2 | network_0/router_level3_1/vc_allocator | Input grants = [ 4 -> 48  12 -> 36  16 -> 52  20 -> 44  ], output grants = [ 36 -> 12  44 -> 20  48 -> 4  52 -> 16  ].
2 | network_0/router_level3_1 | Assigning VC 0 at output 9 to VC 0 at input 3.
2 | network_0/router_level3_1 | Assigning VC 0 at output 13 to VC 0 at input 4.
2 | network_0/router_level3_1 | Assigning VC 0 at output 11 to VC 0 at input 5.
2 | network_0/router_level3_1 | VC allocation failed for VC 0 at input 6.
2 | network_0/router_level3_1 | VC allocation failed for VC 0 at input 7.
2 | network_0/router_level3_1 | Completed VC allocation for VC 0 at input 3 (front: 1).
2 | network_0/router_level3_1 |   Acquiring assigned VC 0 at output 9.
2 | network_0/router_level3_1/buf_3/vc_0 | Changing state from vc_alloc to active.
2 | network_0/router_level3_1 | Completed VC allocation for VC 0 at input 4 (front: 2).
2 | network_0/router_level3_1 |   Acquiring assigned VC 0 at output 13.
2 | network_0/router_level3_1/buf_4/vc_0 | Changing state from vc_alloc to active.
2 | network_0/router_level3_1 | Completed VC allocation for VC 0 at input 5 (front: 3).
2 | network_0/router_level3_1 |   Acquiring assigned VC 0 at output 11.
2 | network_0/router_level3_1/buf_5/vc_0 | Changing state from vc_alloc to active.
2 | network_0/router_level3_1 | Completed VC allocation for VC 0 at input 6 (front: 4).
2 | network_0/router_level3_1 |   No output VC allocated.
2 | network_0/router_level3_1 | Completed VC allocation for VC 0 at input 7 (front: 5).
2 | network_0/router_level3_1 |   No output VC allocated.
2 | network_0/router_level3_2 | Adding flit 6 to VC 0 at input 2 (state: idle, empty).
2 | network_0/router_level3_2 | Using precomputed lookahead routing information for VC 0 at input 2 (front: 6).
2 | network_0/router_level3_2/buf_2/vc_0 | Changing state from idle to vc_alloc.
2 | network_0/router_level3_2 | Adding flit 7 to VC 0 at input 3 (state: idle, empty).
2 | network_0/router_level3_2 | Using precomputed lookahead routing information for VC 0 at input 3 (front: 7).
2 | network_0/router_level3_2/buf_3/vc_0 | Changing state from idle to vc_alloc.
2 | network_0/router_level3_2 | Adding flit 8 to VC 0 at input 4 (state: idle, empty).
2 | network_0/router_level3_2 | Using precomputed lookahead routing information for VC 0 at input 4 (front: 8).
2 | network_0/router_level3_2/buf_4/vc_0 | Changing state from idle to vc_alloc.
2 | network_0/router_level3_2 | Beginning VC allocation for VC 0 at input 2 (front: 6).
2 | network_0/router_level3_2 |   Requesting VC 0 at output 8 (in_pri: 0, out_pri: 0).
2 | network_0/router_level3_2 |   Requesting VC 1 at output 8 (in_pri: 0, out_pri: 0).
2 | network_0/router_level3_2 |   Requesting VC 2 at output 8 (in_pri: 0, out_pri: 0).
2 | network_0/router_level3_2 |   Requesting VC 3 at output 8 (in_pri: 0, out_pri: 0).
2 | network_0/router_level3_2 | Beginning VC allocation for VC 0 at input 3 (front: 7).
2 | network_0/router_level3_2 |   Requesting VC 0 at output 9 (in_pri: 0, out_pri: 0).
2 | network_0/router_level3_2 |   Requesting VC 1 at output 9 (in_pri: 0, out_pri: 0).
2 | network_0/router_level3_2 |   Requesting VC 2 at output 9 (in_pri: 0, out_pri: 0).
2 | network_0/router_level3_2 |   Requesting VC 3 at output 9 (in_pri: 0, out_pri: 0).
2 | network_0/router_level3_2 | Beginning VC allocation for VC 0 at input 4 (front: 8).
2 | network_0/router_level3_2 |   Requesting VC 0 at output 12 (in_pri: 0, out_pri: 0).
2 | network_0/router_level3_2 |   Requesting VC 1 at output 12 (in_pri: 0, out_pri: 0).
2 | network_0/router_level3_2 |   Requesting VC 2 at output 12 (in_pri: 0, out_pri: 0).
2 | network_0/router_level3_2 |   Requesting VC 3 at output 12 (in_pri: 0, out_pri: 0).
2 | network_0/router_level3_2/vc_allocator | Input requests = [ 8 -> [ 32@0 33@0 34@0 35@0 ]  12 -> [ 36@0 37@0 38@0 39@0 ]  16 -> [ 48@0 49@0 50@0 51@0 ]  ], output requests = [ 32 -> [ 8@0 ]  33 -> [ 8@0 ]  34 -> [ 8@0 ]  35 -> [ 8@0 ]  36 -> [ 12@0 ]  37 -> [ 12@0 ]  38 -> [ 12@0 ]  39 -> [ 12@0 ]  48 -> [ 16@0 ]  49 -> [ 16@0 ]  50 -> [ 16@0 ]  51 -> [ 16@0 ]  ].
2 | network_0/router_level3_2/vc_allocator | Input grants = [ 8 -> 32  12 -> 36  16 -> 48  ], output grants = [ 32 -> 8  36 -> 12  48 -> 16  ].
2 | network_0/router_level3_2 | Assigning VC 0 at output 8 to VC 0 at input 2.
2 | network_0/router_level3_2 | Assigning VC 0 at output 9 to VC 0 at input 3.
2 | network_0/router_level3_2 | Assigning VC 0 at output 12 to VC 0 at input 4.
2 | network_0/router_level3_2 | Completed VC allocation for VC 0 at input 2 (front: 6).
2 | network_0/router_level3_2 |   Acquiring assigned VC 0 at output 8.
2 | network_0/router_level3_2/buf_2/vc_0 | Changing state from vc_alloc to active.
2 | network_0/router_level3_2 | Completed VC allocation for VC 0 at input 3 (front: 7).
2 | network_0/router_level3_2 |   Acquiring assigned VC 0 at output 9.
2 | network_0/router_level3_2/buf_3/vc_0 | Changing state from vc_alloc to active.
2 | network_0/router_level3_2 | Completed VC allocation for VC 0 at input 4 (front: 8).
2 | network_0/router_level3_2 |   Acquiring assigned VC 0 at output 12.
2 | network_0/router_level3_2/buf_4/vc_0 | Changing state from vc_alloc to active.
2 | network_0/router_level3_3 | Adding flit 9 to VC 0 at input 6 (state: idle, empty).
2 | network_0/router_level3_3 | Using precomputed lookahead routing information for VC 0 at input 6 (front: 9).
2 | network_0/router_level3_3/buf_6/vc_0 | Changing state from idle to vc_alloc.
2 | network_0/router_level3_3 | Adding flit 10 to VC 0 at input 7 (state: idle, empty).
2 | network_0/router_level3_3 | Using precomputed lookahead routing information for VC 0 at input 7 (front: 10).
2 | network_0/router_level3_3/buf_7/vc_0 | Changing state from idle to vc_alloc.
2 | network_0/router_level3_3 | Beginning VC allocation for VC 0 at input 6 (front: 9).
2 | network_0/router_level3_3 |   Requesting VC 0 at output 9 (in_pri: 0, out_pri: 0).
2 | network_0/router_level3_3 |   Requesting VC 1 at output 9 (in_pri: 0, out_pri: 0).
2 | network_0/router_level3_3 |   Requesting VC 2 at output 9 (in_pri: 0, out_pri: 0).
2 | network_0/router_level3_3 |   Requesting VC 3 at output 9 (in_pri: 0, out_pri: 0).
2 | network_0/router_level3_3 | Beginning VC allocation for VC 0 at input 7 (front: 10).
2 | network_0/router_level3_3 |   Requesting VC 0 at output 12 (in_pri: 0, out_pri: 0).
2 | network_0/router_level3_3 |   Requesting VC 1 at output 12 (in_pri: 0, out_pri: 0).
2 | network_0/router_level3_3 |   Requesting VC 2 at output 12 (in_pri: 0, out_pri: 0).
2 | network_0/router_level3_3 |   Requesting VC 3 at output 12 (in_pri: 0, out_pri: 0).
2 | network_0/router_level3_3/vc_allocator | Input requests = [ 24 -> [ 36@0 37@0 38@0 39@0 ]  28 -> [ 48@0 49@0 50@0 51@0 ]  ], output requests = [ 36 -> [ 24@0 ]  37 -> [ 24@0 ]  38 -> [ 24@0 ]  39 -> [ 24@0 ]  48 -> [ 28@0 ]  49 -> [ 28@0 ]  50 -> [ 28@0 ]  51 -> [ 28@0 ]  ].
2 | network_0/router_level3_3/vc_allocator | Input grants = [ 24 -> 36  28 -> 48  ], output grants = [ 36 -> 24  48 -> 28  ].
2 | network_0/router_level3_3 | Assigning VC 0 at output 9 to VC 0 at input 6.
2 | network_0/router_level3_3 | Assigning VC 0 at output 12 to VC 0 at input 7.
2 | network_0/router_level3_3 | Completed VC allocation for VC 0 at input 6 (front: 9).
2 | network_0/router_level3_3 |   Acquiring assigned VC 0 at output 9.
2 | network_0/router_level3_3/buf_6/vc_0 | Changing state from vc_alloc to active.
2 | network_0/router_level3_3 | Completed VC allocation for VC 0 at input 7 (front: 10).
2 | network_0/router_level3_3 |   Acquiring assigned VC 0 at output 12.
2 | network_0/router_level3_3/buf_7/vc_0 | Changing state from vc_alloc to active.
3 | network_0/router_level3_1 | Beginning VC allocation for VC 0 at input 6 (front: 4).
3 | network_0/router_level3_1 |   VC 0 at output 12 is in use by VC 0 at input 1 (front flit: 0).
3 | network_0/router_level3_1 |   Requesting VC 1 at output 12 (in_pri: 0, out_pri: 0).
3 | network_0/router_level3_1 |   Requesting VC 2 at output 12 (in_pri: 0, out_pri: 0).
3 | network_0/router_level3_1 |   Requesting VC 3 at output 12 (in_pri: 0, out_pri: 0).
3 | network_0/router_level3_1 | Beginning VC allocation for VC 0 at input 7 (front: 5).
3 | network_0/router_level3_1 |   VC 0 at output 11 is in use by VC 0 at input 5 (front flit: 3).
3 | network_0/router_level3_1 |   Requesting VC 1 at output 11 (in_pri: 0, out_pri: 0).
3 | network_0/router_level3_1 |   Requesting VC 2 at output 11 (in_pri: 0, out_pri: 0).
3 | network_0/router_level3_1 |   Requesting VC 3 at output 11 (in_pri: 0, out_pri: 0).
3 | network_0/router_level3_1/vc_allocator | Input requests = [ 5 -> [ 40@0 41@0 42@0 43@0 ]  17 -> [ 45@0 46@0 47@0 ]  21 -> [ 40@0 41@0 42@0 43@0 ]  24 -> [ 49@0 50@0 51@0 ]  25 -> [ 37@0 38@0 39@0 ]  28 -> [ 45@0 46@0 47@0 ]  ], output requests = [ 37 -> [ 25@0 ]  38 -> [ 25@0 ]  39 -> [ 25@0 ]  40 -> [ 5@0 21@0 ]  41 -> [ 5@0 21@0 ]  42 -> [ 5@0 21@0 ]  43 -> [ 5@0 21@0 ]  45 -> [ 17@0 28@0 ]  46 -> [ 17@0 28@0 ]  47 -> [ 17@0 28@0 ]  49 -> [ 24@0 ]  50 -> [ 24@0 ]  51 -> [ 24@0 ]  ].
3 | network_0/router_level3_1/vc_allocator | Input grants = [ 5 -> 40  17 -> 45  24 -> 49  25 -> 37  ], output grants = [ 37 -> 25  40 -> 5  45 -> 17  49 -> 24  ].
3 | network_0/router_level3_1 | Assigning VC 1 at output 12 to VC 0 at input 6.
3 | network_0/router_level3_1 | VC allocation failed for VC 0 at input 7.
3 | network_0/router_level3_1 | Beginning switch allocation for VC 0 at input 3 (front: 1).
3 | network_0/router_level3_1 |   Requesting output 9.0 (non-spec, pri: 0).
3 | network_0/router_level3_1 | Beginning switch allocation for VC 0 at input 4 (front: 2).
3 | network_0/router_level3_1 |   Requesting output 13.0 (non-spec, pri: 0).
3 | network_0/router_level3_1 | Beginning switch allocation for VC 0 at input 5 (front: 3).
3 | network_0/router_level3_1 |   Requesting output 11.0 (non-spec, pri: 0).
3 | network_0/router_level3_1/sw_allocator | Input requests = [ 1 -> [ 12@0 ]  3 -> [ 9@0 ]  4 -> [ 13@0 ]  5 -> [ 11@0 ]  ], output requests = [ 9 -> [ 3@0 ]  11 -> [ 5@0 ]  12 -> [ 1@0 ]  13 -> [ 4@0 ]  ].
3 | network_0/router_level3_1/sw_allocator | Input grants = [ 1 -> 12  3 -> 9  4 -> 13  5 -> 11  ], output grants = [ 9 -> 3  11 -> 5  12 -> 1  13 -> 4  ].
3 | network_0/router_level3_1 | Assigning output 9.0 to VC 0 at input 3.0.
3 | network_0/router_level3_1 | Assigning output 13.0 to VC 0 at input 4.0.
3 | network_0/router_level3_1 | Assigning output 11.0 to VC 0 at input 5.0.
3 | network_0/router_level3_1 | Completed VC allocation for VC 0 at input 6 (front: 4).
3 | network_0/router_level3_1 |   Acquiring assigned VC 1 at output 12.
3 | network_0/router_level3_1/buf_6/vc_0 | Changing state from vc_alloc to active.
3 | network_0/router_level3_1 | Completed VC allocation for VC 0 at input 7 (front: 5).
3 | network_0/router_level3_1 |   No output VC allocated.
3 | network_0/router_level3_1 | Completed switch allocation for VC 0 at input 3 (front: 1).
3 | network_0/router_level3_1 |   Scheduling switch connection from input 3.0 to output 9.0.
3 | network_0/router_level3_1 | Updating lookahead routing information for flit 1.
3 | network_0/router_level3_1 | Completed switch allocation for VC 0 at input 4 (front: 2).
3 | network_0/router_level3_1 |   Scheduling switch connection from input 4.0 to output 13.0.
3 | network_0/router_level3_1 | Updating lookahead routing information for flit 2.
3 | network_0/router_level3_1 | Completed switch allocation for VC 0 at input 5 (front: 3).
3 | network_0/router_level3_1 |   Scheduling switch connection from input 5.0 to output 11.0.
3 | network_0/router_level3_1 | Updating lookahead routing information for flit 3.
3 | network_0/router_level3_2 | Beginning switch allocation for VC 0 at input 2 (front: 6).
3 | network_0/router_level3_2 |   Requesting output 8.0 (non-spec, pri: 0).
3 | network_0/router_level3_2 | Beginning switch allocation for VC 0 at input 3 (front: 7).
3 | network_0/router_level3_2 |   Requesting output 9.0 (non-spec, pri: 0).
3 | network_0/router_level3_2 | Beginning switch allocation for VC 0 at input 4 (front: 8).
3 | network_0/router_level3_2 |   Requesting output 12.0 (non-spec, pri: 0).
3 | network_0/router_level3_2/sw_allocator | Input requests = [ 2 -> [ 8@0 ]  3 -> [ 9@0 ]  4 -> [ 12@0 ]  ], output requests = [ 8 -> [ 2@0 ]  9 -> [ 3@0 ]  12 -> [ 4@0 ]  ].
3 | network_0/router_level3_2/sw_allocator | Input grants = [ 2 -> 8  3 -> 9  4 -> 12  ], output grants = [ 8 -> 2  9 -> 3  12 -> 4  ].
3 | network_0/router_level3_2 | Assigning output 8.0 to VC 0 at input 2.0.
3 | network_0/router_level3_2 | Assigning output 9.0 to VC 0 at input 3.0.
3 | network_0/router_level3_2 | Assigning output 12.0 to VC 0 at input 4.0.
3 | network_0/router_level3_2 | Completed switch allocation for VC 0 at input 2 (front: 6).
3 | network_0/router_level3_2 |   Scheduling switch connection from input 2.0 to output 8.0.
3 | network_0/router_level3_2 | Updating lookahead routing information for flit 6.
3 | network_0/router_level3_2 | Completed switch allocation for VC 0 at input 3 (front: 7).
3 | network_0/router_level3_2 |   Scheduling switch connection from input 3.0 to output 9.0.
3 | network_0/router_level3_2 | Updating lookahead routing information for flit 7.
3 | network_0/router_level3_2 | Completed switch allocation for VC 0 at input 4 (front: 8).
3 | network_0/router_level3_2 |   Scheduling switch connection from input 4.0 to output 12.0.
3 | network_0/router_level3_2 | Updating lookahead routing information for flit 8.
3 | network_0/router_level3_3 | Beginning switch allocation for VC 0 at input 6 (front: 9).
3 | network_0/router_level3_3 |   Requesting output 9.0 (non-spec, pri: 0).
3 | network_0/router_level3_3 | Beginning switch allocation for VC 0 at input 7 (front: 10).
3 | network_0/router_level3_3 |   Requesting output 12.0 (non-spec, pri: 0).
3 | network_0/router_level3_3/sw_allocator | Input requests = [ 6 -> [ 9@0 ]  7 -> [ 12@0 ]  ], output requests = [ 9 -> [ 6@0 ]  12 -> [ 7@0 ]  ].
3 | network_0/router_level3_3/sw_allocator | Input grants = [ 6 -> 9  7 -> 12  ], output grants = [ 9 -> 6  12 -> 7  ].
3 | network_0/router_level3_3 | Assigning output 9.0 to VC 0 at input 6.0.
3 | network_0/router_level3_3 | Assigning output 12.0 to VC 0 at input 7.0.
3 | network_0/router_level3_3 | Completed switch allocation for VC 0 at input 6 (front: 9).
3 | network_0/router_level3_3 |   Scheduling switch connection from input 6.0 to output 9.0.
3 | network_0/router_level3_3 | Updating lookahead routing information for flit 9.
3 | network_0/router_level3_3 | Completed switch allocation for VC 0 at input 7 (front: 10).
3 | network_0/router_level3_3 |   Scheduling switch connection from input 7.0 to output 12.0.
3 | network_0/router_level3_3 | Updating lookahead routing information for flit 10.
4 | network_0/router_level3_1 | Beginning VC allocation for VC 0 at input 7 (front: 5).
4 | network_0/router_level3_1 |   Requesting VC 0 at output 11 (in_pri: 0, out_pri: 0).
4 | network_0/router_level3_1 |   VC 1 at output 11 is in use by VC 1 at input 4 (front flit: 1587).
4 | network_0/router_level3_1 |   Requesting VC 2 at output 11 (in_pri: 0, out_pri: 0).
4 | network_0/router_level3_1 |   Requesting VC 3 at output 11 (in_pri: 0, out_pri: 0).
4 | network_0/router_level3_1/vc_allocator | Input requests = [ 0 -> [ 36@0 38@0 39@0 ]  6 -> [ 41@0 42@0 43@0 ]  21 -> [ 41@0 42@0 43@0 ]  22 -> [ 41@0 42@0 43@0 ]  28 -> [ 44@0 46@0 47@0 ]  ], output requests = [ 36 -> [ 0@0 ]  38 -> [ 0@0 ]  39 -> [ 0@0 ]  41 -> [ 6@0 21@0 22@0 ]  42 -> [ 6@0 21@0 22@0 ]  43 -> [ 6@0 21@0 22@0 ]  44 -> [ 28@0 ]  46 -> [ 28@0 ]  47 -> [ 28@0 ]  ].
4 | network_0/router_level3_1/vc_allocator | Input grants = [ 0 -> 36  6 -> 41  28 -> 44  ], output grants = [ 36 -> 0  41 -> 6  44 -> 28  ].
4 | network_0/router_level3_1 | Assigning VC 0 at output 11 to VC 0 at input 7.
4 | network_0/router_level3_1 | Beginning switch allocation for VC 0 at input 6 (front: 4).
4 | network_0/router_level3_1 |   Requesting output 12.0 (non-spec, pri: 0).
4 | network_0/router_level3_1/sw_allocator | Input requests = [ 1 -> [ 10@0 ]  4 -> [ 11@0 ]  6 -> [ 9@0 12@0 ]  ], output requests = [ 9 -> [ 6@0 ]  10 -> [ 1@0 ]  11 -> [ 4@0 ]  12 -> [ 6@0 ]  ].
4 | network_0/router_level3_1/sw_allocator | Input grants = [ 1 -> 10  4 -> 11  6 -> 9  ], output grants = [ 9 -> 6  10 -> 1  11 -> 4  ].
4 | network_0/router_level3_1 | Switch allocation failed for VC 0 at input 6: Granted to VC 1.
4 | network_0/router_level3_1 | Beginning crossbar traversal for flit 1 from input 3.0 to output 9.0.
4 | network_0/router_level3_1 | Beginning crossbar traversal for flit 2 from input 4.0 to output 13.0.
4 | network_0/router_level3_1 | Beginning crossbar traversal for flit 3 from input 5.0 to output 11.0.
4 | network_0/router_level3_1 | Completed VC allocation for VC 0 at input 7 (front: 5).
4 | network_0/router_level3_1 |   Acquiring assigned VC 0 at output 11.
4 | network_0/router_level3_1/buf_7/vc_0 | Changing state from vc_alloc to active.
4 | network_0/router_level3_1 | Completed switch allocation for VC 0 at input 6 (front: 4).
4 | network_0/router_level3_1 |   No output port allocated.
4 | network_0/router_level3_1 | Completed crossbar traversal for flit 1 from input 3.0 to output 9.0.
4 | network_0/router_level3_1 | Buffering flit 1 at output 9.
4 | network_0/router_level3_1 | Completed crossbar traversal for flit 2 from input 4.0 to output 13.0.
4 | network_0/router_level3_1 | Buffering flit 2 at output 13.
4 | network_0/router_level3_1 | Completed crossbar traversal for flit 3 from input 5.0 to output 11.0.
4 | network_0/router_level3_1 | Buffering flit 3 at output 11.
4 | network_0/router_level3_2 | Beginning crossbar traversal for flit 6 from input 2.0 to output 8.0.
4 | network_0/router_level3_2 | Beginning crossbar traversal for flit 7 from input 3.0 to output 9.0.
4 | network_0/router_level3_2 | Beginning crossbar traversal for flit 8 from input 4.0 to output 12.0.
4 | network_0/router_level3_2 | Completed crossbar traversal for flit 6 from input 2.0 to output 8.0.
4 | network_0/router_level3_2 | Buffering flit 6 at output 8.
4 | network_0/router_level3_2 | Completed crossbar traversal for flit 7 from input 3.0 to output 9.0.
4 | network_0/router_level3_2 | Buffering flit 7 at output 9.
4 | network_0/router_level3_2 | Completed crossbar traversal for flit 8 from input 4.0 to output 12.0.
4 | network_0/router_level3_2 | Buffering flit 8 at output 12.
4 | network_0/router_level3_3 | Beginning crossbar traversal for flit 9 from input 6.0 to output 9.0.
4 | network_0/router_level3_3 | Beginning crossbar traversal for flit 10 from input 7.0 to output 12.0.
4 | network_0/router_level3_3 | Completed crossbar traversal for flit 9 from input 6.0 to output 9.0.
4 | network_0/router_level3_3 | Buffering flit 9 at output 9.
4 | network_0/router_level3_3 | Completed crossbar traversal for flit 10 from input 7.0 to output 12.0.
4 | network_0/router_level3_3 | Buffering flit 10 at output 12.
4 | network_0/router_level3_1 | Sending flit 1 to channel at output 9.
4 | network_0/router_level3_1 | Sending flit 3 to channel at output 11.
4 | network_0/router_level3_1 | Sending flit 2 to channel at output 13.
4 | network_0/router_level3_2 | Sending flit 6 to channel at output 8.
4 | network_0/router_level3_2 | Sending flit 7 to channel at output 9.
4 | network_0/router_level3_2 | Sending flit 8 to channel at output 12.
4 | network_0/router_level3_3 | Sending flit 9 to channel at output 9.
4 | network_0/router_level3_3 | Sending flit 10 to channel at output 12.
5 | network_0/network_0_fchan_20489 | Beginning channel traversal for flit 1 with delay 1.
5 | network_0/network_0_fchan_20491 | Beginning channel traversal for flit 3 with delay 1.
5 | network_0/network_0_fchan_20493 | Beginning channel traversal for flit 2 with delay 1.
5 | network_0/network_0_fchan_20496 | Beginning channel traversal for flit 6 with delay 1.
5 | network_0/network_0_fchan_20497 | Beginning channel traversal for flit 7 with delay 1.
5 | network_0/network_0_fchan_20500 | Beginning channel traversal for flit 8 with delay 1.
5 | network_0/network_0_fchan_20505 | Beginning channel traversal for flit 9 with delay 1.
5 | network_0/network_0_fchan_20508 | Beginning channel traversal for flit 10 with delay 1.
5 | network_0/router_level3_1 | Beginning switch allocation for VC 0 at input 7 (front: 5).
5 | network_0/router_level3_1 |   Requesting output 11.0 (non-spec, pri: 0).
5 | network_0/router_level3_1 | Beginning switch allocation for VC 0 at input 6 (front: 4).
5 | network_0/router_level3_1 |   Requesting output 12.0 (non-spec, pri: 0).
5 | network_0/router_level3_1/sw_allocator | Input requests = [ 0 -> [ 9@0 ]  1 -> [ 10@0 ]  6 -> [ 12@0 ]  7 -> [ 11@0 ]  ], output requests = [ 9 -> [ 0@0 ]  10 -> [ 1@0 ]  11 -> [ 7@0 ]  12 -> [ 6@0 ]  ].
5 | network_0/router_level3_1/sw_allocator | Input grants = [ 0 -> 9  1 -> 10  6 -> 12  7 -> 11  ], output grants = [ 9 -> 0  10 -> 1  11 -> 7  12 -> 6  ].
5 | network_0/router_level3_1 | Assigning output 11.0 to VC 0 at input 7.0.
5 | network_0/router_level3_1 | Assigning output 12.0 to VC 0 at input 6.0.
5 | network_0/router_level3_1 | Completed switch allocation for VC 0 at input 7 (front: 5).
5 | network_0/router_level3_1 |   Scheduling switch connection from input 7.0 to output 11.0.
5 | network_0/router_level3_1 | Updating lookahead routing information for flit 5.
5 | network_0/router_level3_1 | Completed switch allocation for VC 0 at input 6 (front: 4).
5 | network_0/router_level3_1 |   Scheduling switch connection from input 6.0 to output 12.0.
5 | network_0/router_level3_1 | Updating lookahead routing information for flit 4.
5 | network_0/network_0_fchan_20489 | Completed channel traversal for flit 1.
5 | network_0/network_0_fchan_20491 | Completed channel traversal for flit 3.
5 | network_0/network_0_fchan_20493 | Completed channel traversal for flit 2.
5 | network_0/network_0_fchan_20496 | Completed channel traversal for flit 6.
5 | network_0/network_0_fchan_20497 | Completed channel traversal for flit 7.
5 | network_0/network_0_fchan_20500 | Completed channel traversal for flit 8.
5 | network_0/network_0_fchan_20505 | Completed channel traversal for flit 9.
5 | network_0/network_0_fchan_20508 | Completed channel traversal for flit 10.
6 | network_0/router_level2_0 | Received flit 6 from channel at input 2.
6 | network_0/router_level2_1 | Received flit 1 from channel at input 1.
6 | network_0/router_level2_1 | Received flit 7 from channel at input 2.
6 | network_0/router_level2_1 | Received flit 9 from channel at input 3.
6 | network_0/router_level2_3 | Received flit 3 from channel at input 1.
6 | network_0/router_level2_4 | Received flit 8 from channel at input 2.
6 | network_0/router_level2_4 | Received flit 10 from channel at input 3.
6 | network_0/router_level2_5 | Received flit 2 from channel at input 1.
6 | network_0/router_level2_0 | Adding flit 6 to VC 0 at input 2 (state: idle, empty).
6 | network_0/router_level2_0 | Using precomputed lookahead routing information for VC 0 at input 2 (front: 6).
6 | network_0/router_level2_0/buf_2/vc_0 | Changing state from idle to vc_alloc.
6 | network_0/router_level2_0 | Beginning VC allocation for VC 0 at input 2 (front: 6).
6 | network_0/router_level2_0 |   Requesting VC 0 at output 8 (in_pri: 0, out_pri: 0).
6 | network_0/router_level2_0 |   Requesting VC 1 at output 8 (in_pri: 0, out_pri: 0).
6 | network_0/router_level2_0 |   Requesting VC 2 at output 8 (in_pri: 0, out_pri: 0).
6 | network_0/router_level2_0 |   Requesting VC 3 at output 8 (in_pri: 0, out_pri: 0).
6 | network_0/router_level2_0/vc_allocator | Input requests = [ 8 -> [ 32@0 33@0 34@0 35@0 ]  20 -> [ 36@0 37@0 38@0 39@0 ]  24 -> [ 52@0 53@0 54@0 55@0 ]  ], output requests = [ 32 -> [ 8@0 ]  33 -> [ 8@0 ]  34 -> [ 8@0 ]  35 -> [ 8@0 ]  36 -> [ 20@0 ]  37 -> [ 20@0 ]  38 -> [ 20@0 ]  39 -> [ 20@0 ]  52 -> [ 24@0 ]  53 -> [ 24@0 ]  54 -> [ 24@0 ]  55 -> [ 24@0 ]  ].
6 | network_0/router_level2_0/vc_allocator | Input grants = [ 8 -> 32  20 -> 36  24 -> 52  ], output grants = [ 32 -> 8  36 -> 20  52 -> 24  ].
6 | network_0/router_level2_0 | Assigning VC 0 at output 8 to VC 0 at input 2.
6 | network_0/router_level2_0 | Completed VC allocation for VC 0 at input 2 (front: 6).
6 | network_0/router_level2_0 |   Acquiring assigned VC 0 at output 8.
6 | network_0/router_level2_0/buf_2/vc_0 | Changing state from vc_alloc to active.
6 | network_0/router_level2_1 | Adding flit 1 to VC 0 at input 1 (state: idle, empty).
6 | network_0/router_level2_1 | Using precomputed lookahead routing information for VC 0 at input 1 (front: 1).
6 | network_0/router_level2_1/buf_1/vc_0 | Changing state from idle to vc_alloc.
6 | network_0/router_level2_1 | Adding flit 7 to VC 0 at input 2 (state: idle, empty).
6 | network_0/router_level2_1 | Using precomputed lookahead routing information for VC 0 at input 2 (front: 7).
6 | network_0/router_level2_1/buf_2/vc_0 | Changing state from idle to vc_alloc.
6 | network_0/router_level2_1 | Adding flit 9 to VC 0 at input 3 (state: idle, empty).
6 | network_0/router_level2_1 | Using precomputed lookahead routing information for VC 0 at input 3 (front: 9).
6 | network_0/router_level2_1/buf_3/vc_0 | Changing state from idle to vc_alloc.
6 | network_0/router_level2_1 | Beginning VC allocation for VC 0 at input 1 (front: 1).
6 | network_0/router_level2_1 |   Requesting VC 0 at output 11 (in_pri: 0, out_pri: 0).
6 | network_0/router_level2_1 |   Requesting VC 1 at output 11 (in_pri: 0, out_pri: 0).
6 | network_0/router_level2_1 |   Requesting VC 2 at output 11 (in_pri: 0, out_pri: 0).
6 | network_0/router_level2_1 |   Requesting VC 3 at output 11 (in_pri: 0, out_pri: 0).
6 | network_0/router_level2_1 | Beginning VC allocation for VC 0 at input 2 (front: 7).
6 | network_0/router_level2_1 |   Requesting VC 0 at output 11 (in_pri: 0, out_pri: 0).
6 | network_0/router_level2_1 |   Requesting VC 1 at output 11 (in_pri: 0, out_pri: 0).
6 | network_0/router_level2_1 |   Requesting VC 2 at output 11 (in_pri: 0, out_pri: 0).
6 | network_0/router_level2_1 |   Requesting VC 3 at output 11 (in_pri: 0, out_pri: 0).
6 | network_0/router_level2_1 | Beginning VC allocation for VC 0 at input 3 (front: 9).
6 | network_0/router_level2_1 |   Requesting VC 0 at output 14 (in_pri: 0, out_pri: 0).
6 | network_0/router_level2_1 |   Requesting VC 1 at output 14 (in_pri: 0, out_pri: 0).
6 | network_0/router_level2_1 |   Requesting VC 2 at output 14 (in_pri: 0, out_pri: 0).
6 | network_0/router_level2_1 |   Requesting VC 3 at output 14 (in_pri: 0, out_pri: 0).
6 | network_0/router_level2_1/vc_allocator | Input requests = [ 4 -> [ 44@0 45@0 46@0 47@0 ]  8 -> [ 44@0 45@0 46@0 47@0 ]  12 -> [ 56@0 57@0 58@0 59@0 ]  24 -> [ 40@0 41@0 42@0 43@0 ]  28 -> [ 52@0 53@0 54@0 55@0 ]  ], output requests = [ 40 -> [ 24@0 ]  41 -> [ 24@0 ]  42 -> [ 24@0 ]  43 -> [ 24@0 ]  44 -> [ 4@0 8@0 ]  45 -> [ 4@0 8@0 ]  46 -> [ 4@0 8@0 ]  47 -> [ 4@0 8@0 ]  52 -> [ 28@0 ]  53 -> [ 28@0 ]  54 -> [ 28@0 ]  55 -> [ 28@0 ]  56 -> [ 12@0 ]  57 -> [ 12@0 ]  58 -> [ 12@0 ]  59 -> [ 12@0 ]  ].
6 | network_0/router_level2_1/vc_allocator | Input grants = [ 4 -> 44  12 -> 56  24 -> 40  28 -> 52  ], output grants = [ 40 -> 24  44 -> 4  52 -> 28  56 -> 12  ].
6 | network_0/router_level2_1 | Assigning VC 0 at output 11 to VC 0 at input 1.
6 | network_0/router_level2_1 | VC allocation failed for VC 0 at input 2.
6 | network_0/router_level2_1 | Assigning VC 0 at output 14 to VC 0 at input 3.
6 | network_0/router_level2_1 | Completed VC allocation for VC 0 at input 1 (front: 1).
6 | network_0/router_level2_1 |   Acquiring assigned VC 0 at output 11.
6 | network_0/router_level2_1/buf_1/vc_0 | Changing state from vc_alloc to active.
6 | network_0/router_level2_1 | Completed VC allocation for VC 0 at input 2 (front: 7).
6 | network_0/router_level2_1 |   No output VC allocated.
6 | network_0/router_level2_1 | Completed VC allocation for VC 0 at input 3 (front: 9).
6 | network_0/router_level2_1 |   Acquiring assigned VC 0 at output 14.
6 | network_0/router_level2_1/buf_3/vc_0 | Changing state from vc_alloc to active.
6 | network_0/router_level2_3 | Adding flit 3 to VC 0 at input 1 (state: idle, empty).
6 | network_0/router_level2_3 | Using precomputed lookahead routing information for VC 0 at input 1 (front: 3).
6 | network_0/router_level2_3/buf_1/vc_0 | Changing state from idle to vc_alloc.
6 | network_0/router_level2_3 | Beginning VC allocation for VC 0 at input 1 (front: 3).
6 | network_0/router_level2_3 |   Requesting VC 0 at output 11 (in_pri: 0, out_pri: 0).
6 | network_0/router_level2_3 |   Requesting VC 1 at output 11 (in_pri: 0, out_pri: 0).
6 | network_0/router_level2_3 |   Requesting VC 2 at output 11 (in_pri: 0, out_pri: 0).
6 | network_0/router_level2_3 |   Requesting VC 3 at output 11 (in_pri: 0, out_pri: 0).
6 | network_0/router_level2_3/vc_allocator | Input requests = [ 4 -> [ 44@0 45@0 46@0 47@0 ]  ], output requests = [ 44 -> [ 4@0 ]  45 -> [ 4@0 ]  46 -> [ 4@0 ]  47 -> [ 4@0 ]  ].
6 | network_0/router_level2_3/vc_allocator | Input grants = [ 4 -> 44  ], output grants = [ 44 -> 4  ].
6 | network_0/router_level2_3 | Assigning VC 0 at output 11 to VC 0 at input 1.
6 | network_0/router_level2_3 | Completed VC allocation for VC 0 at input 1 (front: 3).
6 | network_0/router_level2_3 |   Acquiring assigned VC 0 at output 11.
6 | network_0/router_level2_3/buf_1/vc_0 | Changing state from vc_alloc to active.
6 | network_0/router_level2_4 | Adding flit 8 to VC 0 at input 2 (state: idle, empty).
6 | network_0/router_level2_4 | Using precomputed lookahead routing information for VC 0 at input 2 (front: 8).
6 | network_0/router_level2_4/buf_2/vc_0 | Changing state from idle to vc_alloc.
6 | network_0/router_level2_4 | Adding flit 10 to VC 0 at input 3 (state: idle, empty).
6 | network_0/router_level2_4 | Using precomputed lookahead routing information for VC 0 at input 3 (front: 10).
6 | network_0/router_level2_4/buf_3/vc_0 | Changing state from idle to vc_alloc.
6 | network_0/router_level2_4 | Beginning VC allocation for VC 0 at input 2 (front: 8).
6 | network_0/router_level2_4 |   Requesting VC 0 at output 12 (in_pri: 0, out_pri: 0).
6 | network_0/router_level2_4 |   Requesting VC 1 at output 12 (in_pri: 0, out_pri: 0).
6 | network_0/router_level2_4 |   Requesting VC 2 at output 12 (in_pri: 0, out_pri: 0).
6 | network_0/router_level2_4 |   Requesting VC 3 at output 12 (in_pri: 0, out_pri: 0).
6 | network_0/router_level2_4 | Beginning VC allocation for VC 0 at input 3 (front: 10).
6 | network_0/router_level2_4 |   Requesting VC 0 at output 15 (in_pri: 0, out_pri: 0).
6 | network_0/router_level2_4 |   Requesting VC 1 at output 15 (in_pri: 0, out_pri: 0).
6 | network_0/router_level2_4 |   Requesting VC 2 at output 15 (in_pri: 0, out_pri: 0).
6 | network_0/router_level2_4 |   Requesting VC 3 at output 15 (in_pri: 0, out_pri: 0).
6 | network_0/router_level2_4/vc_allocator | Input requests = [ 4 -> [ 60@0 61@0 62@0 63@0 ]  8 -> [ 48@0 49@0 50@0 51@0 ]  12 -> [ 60@0 61@0 62@0 63@0 ]  20 -> [ 32@0 33@0 34@0 35@0 ]  ], output requests = [ 32 -> [ 20@0 ]  33 -> [ 20@0 ]  34 -> [ 20@0 ]  35 -> [ 20@0 ]  48 -> [ 8@0 ]  49 -> [ 8@0 ]  50 -> [ 8@0 ]  51 -> [ 8@0 ]  60 -> [ 4@0 12@0 ]  61 -> [ 4@0 12@0 ]  62 -> [ 4@0 12@0 ]  63 -> [ 4@0 12@0 ]  ].
6 | network_0/router_level2_4/vc_allocator | Input grants = [ 4 -> 60  8 -> 48  20 -> 32  ], output grants = [ 32 -> 20  48 -> 8  60 -> 4  ].
6 | network_0/router_level2_4 | Assigning VC 0 at output 12 to VC 0 at input 2.
6 | network_0/router_level2_4 | VC allocation failed for VC 0 at input 3.
6 | network_0/router_level2_4 | Completed VC allocation for VC 0 at input 2 (front: 8).
6 | network_0/router_level2_4 |   Acquiring assigned VC 0 at output 12.
6 | network_0/router_level2_4/buf_2/vc_0 | Changing state from vc_alloc to active.
6 | network_0/router_level2_4 | Completed VC allocation for VC 0 at input 3 (front: 10).
6 | network_0/router_level2_4 |   No output VC allocated.
6 | network_0/router_level2_5 | Adding flit 2 to VC 0 at input 1 (state: idle, empty).
6 | network_0/router_level2_5 | Using precomputed lookahead routing information for VC 0 at input 1 (front: 2).
6 | network_0/router_level2_5/buf_1/vc_0 | Changing state from idle to vc_alloc.
6 | network_0/router_level2_5 | Beginning VC allocation for VC 0 at input 1 (front: 2).
6 | network_0/router_level2_5 |   Requesting VC 0 at output 15 (in_pri: 0, out_pri: 0).
6 | network_0/router_level2_5 |   Requesting VC 1 at output 15 (in_pri: 0, out_pri: 0).
6 | network_0/router_level2_5 |   Requesting VC 2 at output 15 (in_pri: 0, out_pri: 0).
6 | network_0/router_level2_5 |   Requesting VC 3 at output 15 (in_pri: 0, out_pri: 0).
6 | network_0/router_level2_5/vc_allocator | Input requests = [ 4 -> [ 60@0 61@0 62@0 63@0 ]  16 -> [ 56@0 57@0 58@0 59@0 ]  ], output requests = [ 56 -> [ 16@0 ]  57 -> [ 16@0 ]  58 -> [ 16@0 ]  59 -> [ 16@0 ]  60 -> [ 4@0 ]  61 -> [ 4@0 ]  62 -> [ 4@0 ]  63 -> [ 4@0 ]  ].
6 | network_0/router_level2_5/vc_allocator | Input grants = [ 4 -> 60  16 -> 56  ], output grants = [ 56 -> 16  60 -> 4  ].
6 | network_0/router_level2_5 | Assigning VC 0 at output 15 to VC 0 at input 1.
6 | network_0/router_level2_5 | Completed VC allocation for VC 0 at input 1 (front: 2).
6 | network_0/router_level2_5 |   Acquiring assigned VC 0 at output 15.
6 | network_0/router_level2_5/buf_1/vc_0 | Changing state from vc_alloc to active.
6 | network_0/router_level3_1 | Beginning crossbar traversal for flit 5 from input 7.0 to output 11.0.
6 | network_0/router_level3_1 | Beginning crossbar traversal for flit 4 from input 6.0 to output 12.0.
6 | network_0/router_level3_1 | Completed crossbar traversal for flit 5 from input 7.0 to output 11.0.
6 | network_0/router_level3_1 | Buffering flit 5 at output 11.
6 | network_0/router_level3_1 | Completed crossbar traversal for flit 4 from input 6.0 to output 12.0.
6 | network_0/router_level3_1 | Buffering flit 4 at output 12.
6 | network_0/router_level3_1 | Sending flit 5 to channel at output 11.
6 | network_0/router_level3_1 | Sending flit 4 to channel at output 12.
7 | network_0/network_0_fchan_20491 | Beginning channel traversal for flit 5 with delay 1.
7 | network_0/network_0_fchan_20492 | Beginning channel traversal for flit 4 with delay 1.
7 | network_0/router_level2_0 | Beginning switch allocation for VC 0 at input 2 (front: 6).
7 | network_0/router_level2_0 |   Requesting output 8.0 (non-spec, pri: 0).
7 | network_0/router_level2_0/sw_allocator | Input requests = [ 2 -> [ 8@0 ]  5 -> [ 9@0 ]  6 -> [ 13@0 ]  ], output requests = [ 8 -> [ 2@0 ]  9 -> [ 5@0 ]  13 -> [ 6@0 ]  ].
7 | network_0/router_level2_0/sw_allocator | Input grants = [ 2 -> 8  5 -> 9  6 -> 13  ], output grants = [ 8 -> 2  9 -> 5  13 -> 6  ].
7 | network_0/router_level2_0 | Assigning output 8.0 to VC 0 at input 2.0.
7 | network_0/router_level2_0 | Completed switch allocation for VC 0 at input 2 (front: 6).
7 | network_0/router_level2_0 |   Scheduling switch connection from input 2.0 to output 8.0.
7 | network_0/router_level2_0 | Updating lookahead routing information for flit 6.
7 | network_0/router_level2_1 | Beginning VC allocation for VC 0 at input 2 (front: 7).
7 | network_0/router_level2_1 |   VC 0 at output 11 is in use by VC 0 at input 1 (front flit: 1).
7 | network_0/router_level2_1 |   Requesting VC 1 at output 11 (in_pri: 0, out_pri: 0).
7 | network_0/router_level2_1 |   Requesting VC 2 at output 11 (in_pri: 0, out_pri: 0).
7 | network_0/router_level2_1 |   Requesting VC 3 at output 11 (in_pri: 0, out_pri: 0).
7 | network_0/router_level2_1/vc_allocator | Input requests = [ 0 -> [ 41@0 42@0 43@0 ]  5 -> [ 36@0 37@0 38@0 39@0 ]  8 -> [ 45@0 46@0 47@0 ]  9 -> [ 36@0 37@0 38@0 39@0 ]  20 -> [ 41@0 42@0 43@0 ]  ], output requests = [ 36 -> [ 5@0 9@0 ]  37 -> [ 5@0 9@0 ]  38 -> [ 5@0 9@0 ]  39 -> [ 5@0 9@0 ]  41 -> [ 0@0 20@0 ]  42 -> [ 0@0 20@0 ]  43 -> [ 0@0 20@0 ]  45 -> [ 8@0 ]  46 -> [ 8@0 ]  47 -> [ 8@0 ]  ].
7 | network_0/router_level2_1/vc_allocator | Input grants = [ 0 -> 41  5 -> 36  8 -> 45  ], output grants = [ 36 -> 5  41 -> 0  45 -> 8  ].
7 | network_0/router_level2_1 | Assigning VC 1 at output 11 to VC 0 at input 2.
7 | network_0/router_level2_1 | Beginning switch allocation for VC 0 at input 1 (front: 1).
7 | network_0/router_level2_1 |   Requesting output 11.0 (non-spec, pri: 0).
7 | network_0/router_level2_1 | Beginning switch allocation for VC 0 at input 3 (front: 9).
7 | network_0/router_level2_1 |   Requesting output 14.0 (non-spec, pri: 0).
7 | network_0/router_level2_1/sw_allocator | Input requests = [ 1 -> [ 11@0 ]  3 -> [ 14@0 ]  6 -> [ 10@0 ]  7 -> [ 13@0 ]  ], output requests = [ 10 -> [ 6@0 ]  11 -> [ 1@0 ]  13 -> [ 7@0 ]  14 -> [ 3@0 ]  ].
7 | network_0/router_level2_1/sw_allocator | Input grants = [ 1 -> 11  3 -> 14  6 -> 10  7 -> 13  ], output grants = [ 10 -> 6  11 -> 1  13 -> 7  14 -> 3  ].
7 | network_0/router_level2_1 | Assigning output 11.0 to VC 0 at input 1.0.
7 | network_0/router_level2_1 | Assigning output 14.0 to VC 0 at input 3.0.
7 | network_0/router_level2_1 | Completed VC allocation for VC 0 at input 2 (front: 7).
7 | network_0/router_level2_1 |   Acquiring assigned VC 1 at output 11.
7 | network_0/router_level2_1/buf_2/vc_0 | Changing state from vc_alloc to active.
7 | network_0/router_level2_1 | Completed switch allocation for VC 0 at input 1 (front: 1).
7 | network_0/router_level2_1 |   Scheduling switch connection from input 1.0 to output 11.0.
7 | network_0/router_level2_1 | Updating lookahead routing information for flit 1.
7 | network_0/router_level2_1 | Completed switch allocation for VC 0 at input 3 (front: 9).
7 | network_0/router_level2_1 |   Scheduling switch connection from input 3.0 to output 14.0.
7 | network_0/router_level2_1 | Updating lookahead routing information for flit 9.
7 | network_0/router_level2_3 | Beginning switch allocation for VC 0 at input 1 (front: 3).
7 | network_0/router_level2_3 |   Requesting output 11.0 (non-spec, pri: 0).
7 | network_0/router_level2_3/sw_allocator | Input requests = [ 1 -> [ 11@0 ]  ], output requests = [ 11 -> [ 1@0 ]  ].
7 | network_0/router_level2_3/sw_allocator | Input grants = [ 1 -> 11  ], output grants = [ 11 -> 1  ].
7 | network_0/router_level2_3 | Assigning output 11.0 to VC 0 at input 1.0.
7 | network_0/router_level2_3 | Completed switch allocation for VC 0 at input 1 (front: 3).
7 | network_0/router_level2_3 |   Scheduling switch connection from input 1.0 to output 11.0.
7 | network_0/router_level2_3 | Updating lookahead routing information for flit 3.
7 | network_0/router_level2_4 | Beginning VC allocation for VC 0 at input 3 (front: 10).
7 | network_0/router_level2_4 |   VC 0 at output 15 is in use by VC 0 at input 1 (front flit: 0).
7 | network_0/router_level2_4 |   Requesting VC 1 at output 15 (in_pri: 0, out_pri: 0).
7 | network_0/router_level2_4 |   Requesting VC 2 at output 15 (in_pri: 0, out_pri: 0).
7 | network_0/router_level2_4 |   Requesting VC 3 at output 15 (in_pri: 0, out_pri: 0).
7 | network_0/router_level2_4/vc_allocator | Input requests = [ 0 -> [ 40@0 41@0 42@0 43@0 ]  9 -> [ 49@0 50@0 51@0 ]  12 -> [ 61@0 62@0 63@0 ]  21 -> [ 40@0 41@0 42@0 43@0 ]  28 -> [ 36@0 37@0 38@0 39@0 ]  ], output requests = [ 36 -> [ 28@0 ]  37 -> [ 28@0 ]  38 -> [ 28@0 ]  39 -> [ 28@0 ]  40 -> [ 0@0 21@0 ]  41 -> [ 0@0 21@0 ]  42 -> [ 0@0 21@0 ]  43 -> [ 0@0 21@0 ]  49 -> [ 9@0 ]  50 -> [ 9@0 ]  51 -> [ 9@0 ]  61 -> [ 12@0 ]  62 -> [ 12@0 ]  63 -> [ 12@0 ]  ].
7 | network_0/router_level2_4/vc_allocator | Input grants = [ 0 -> 40  9 -> 49  12 -> 61  28 -> 36  ], output grants = [ 36 -> 28  40 -> 0  49 -> 9  61 -> 12  ].
7 | network_0/router_level2_4 | Assigning VC 1 at output 15 to VC 0 at input 3.
7 | network_0/router_level2_4 | Beginning switch allocation for VC 0 at input 2 (front: 8).
7 | network_0/router_level2_4 |   Requesting output 12.0 (non-spec, pri: 0).
7 | network_0/router_level2_4/sw_allocator | Input requests = [ 1 -> [ 15@0 ]  2 -> [ 12@0 ]  5 -> [ 8@0 ]  ], output requests = [ 8 -> [ 5@0 ]  12 -> [ 2@0 ]  15 -> [ 1@0 ]  ].
7 | network_0/router_level2_4/sw_allocator | Input grants = [ 1 -> 15  2 -> 12  5 -> 8  ], output grants = [ 8 -> 5  12 -> 2  15 -> 1  ].
7 | network_0/router_level2_4 | Assigning output 12.0 to VC 0 at input 2.0.
7 | network_0/router_level2_4 | Completed VC allocation for VC 0 at input 3 (front: 10).
7 | network_0/router_level2_4 |   Acquiring assigned VC 1 at output 15.
7 | network_0/router_level2_4/buf_3/vc_0 | Changing state from vc_alloc to active.
7 | network_0/router_level2_4 | Completed switch allocation for VC 0 at input 2 (front: 8).
7 | network_0/router_level2_4 |   Scheduling switch connection from input 2.0 to output 12.0.
7 | network_0/router_level2_4 | Updating lookahead routing information for flit 8.
7 | network_0/router_level2_5 | Beginning switch allocation for VC 0 at input 1 (front: 2).
7 | network_0/router_level2_5 |   Requesting output 15.0 (non-spec, pri: 0).
7 | network_0/router_level2_5/sw_allocator | Input requests = [ 1 -> [ 15@0 ]  4 -> [ 14@0 ]  ], output requests = [ 14 -> [ 4@0 ]  15 -> [ 1@0 ]  ].
7 | network_0/router_level2_5/sw_allocator | Input grants = [ 1 -> 15  4 -> 14  ], output grants = [ 14 -> 4  15 -> 1  ].
7 | network_0/router_level2_5 | Assigning output 15.0 to VC 0 at input 1.0.
7 | network_0/router_level2_5 | Completed switch allocation for VC 0 at input 1 (front: 2).
7 | network_0/router_level2_5 |   Scheduling switch connection from input 1.0 to output 15.0.
7 | network_0/router_level2_5 | Updating lookahead routing information for flit 2.
7 | network_0/network_0_fchan_20491 | Completed channel traversal for flit 5.
7 | network_0/network_0_fchan_20492 | Completed channel traversal for flit 4.
8 | network_0/router_level2_3 | Received flit 5 from channel at input 1.
8 | network_0/router_level2_4 | Received flit 4 from channel at input 1.
8 | network_0/router_level2_0 | Beginning crossbar traversal for flit 6 from input 2.0 to output 8.0.
8 | network_0/router_level2_0 | Completed crossbar traversal for flit 6 from input 2.0 to output 8.0.
8 | network_0/router_level2_0 | Buffering flit 6 at output 8.
8 | network_0/router_level2_1 | Beginning switch allocation for VC 0 at input 2 (front: 7).
8 | network_0/router_level2_1 |   Requesting output 11.0 (non-spec, pri: 0).
8 | network_0/router_level2_1/sw_allocator | Input requests = [ 0 -> [ 10@0 ]  1 -> [ 9@0 ]  2 -> [ 11@0 ]  ], output requests = [ 9 -> [ 1@0 ]  10 -> [ 0@0 ]  11 -> [ 2@0 ]  ].
8 | network_0/router_level2_1/sw_allocator | Input grants = [ 0 -> 10  1 -> 9  2 -> 11  ], output grants = [ 9 -> 1  10 -> 0  11 -> 2  ].
8 | network_0/router_level2_1 | Assigning output 11.0 to VC 0 at input 2.0.
8 | network_0/router_level2_1 | Beginning crossbar traversal for flit 1 from input 1.0 to output 11.0.
8 | network_0/router_level2_1 | Beginning crossbar traversal for flit 9 from input 3.0 to output 14.0.
8 | network_0/router_level2_1 | Completed switch allocation for VC 0 at input 2 (front: 7).
8 | network_0/router_level2_1 |   Scheduling switch connection from input 2.0 to output 11.0.
8 | network_0/router_level2_1 | Updating lookahead routing information for flit 7.
8 | network_0/router_level2_1 | Completed crossbar traversal for flit 1 from input 1.0 to output 11.0.
8 | network_0/router_level2_1 | Buffering flit 1 at output 11.
8 | network_0/router_level2_1 | Completed crossbar traversal for flit 9 from input 3.0 to output 14.0.
8 | network_0/router_level2_1 | Buffering flit 9 at output 14.
8 | network_0/router_level2_3 | Adding flit 5 to VC 0 at input 1 (state: idle, empty).
8 | network_0/router_level2_3 | Using precomputed lookahead routing information for VC 0 at input 1 (front: 5).
8 | network_0/router_level2_3/buf_1/vc_0 | Changing state from idle to vc_alloc.
8 | network_0/router_level2_3 | Beginning VC allocation for VC 0 at input 1 (front: 5).
8 | network_0/router_level2_3 |   VC 0 at output 15 is in use by VC 0 at input 0 (front flit: 1584).
8 | network_0/router_level2_3 |   Requesting VC 1 at output 15 (in_pri: 0, out_pri: 0).
8 | network_0/router_level2_3 |   Requesting VC 2 at output 15 (in_pri: 0, out_pri: 0).
8 | network_0/router_level2_3 |   Requesting VC 3 at output 15 (in_pri: 0, out_pri: 0).
8 | network_0/router_level2_3/vc_allocator | Input requests = [ 4 -> [ 61@0 62@0 63@0 ]  8 -> [ 37@0 38@0 39@0 ]  13 -> [ 56@0 57@0 58@0 59@0 ]  25 -> [ 56@0 57@0 58@0 59@0 ]  ], output requests = [ 37 -> [ 8@0 ]  38 -> [ 8@0 ]  39 -> [ 8@0 ]  56 -> [ 13@0 25@0 ]  57 -> [ 13@0 25@0 ]  58 -> [ 13@0 25@0 ]  59 -> [ 13@0 25@0 ]  61 -> [ 4@0 ]  62 -> [ 4@0 ]  63 -> [ 4@0 ]  ].
8 | network_0/router_level2_3/vc_allocator | Input grants = [ 4 -> 61  8 -> 37  13 -> 56  ], output grants = [ 37 -> 8  56 -> 13  61 -> 4  ].
8 | network_0/router_level2_3 | Assigning VC 1 at output 15 to VC 0 at input 1.
8 | network_0/router_level2_3 | Beginning crossbar traversal for flit 3 from input 1.0 to output 11.0.
8 | network_0/router_level2_3 | Completed VC allocation for VC 0 at input 1 (front: 5).
8 | network_0/router_level2_3 |   Acquiring assigned VC 1 at output 15.
8 | network_0/router_level2_3/buf_1/vc_0 | Changing state from vc_alloc to active.
8 | network_0/router_level2_3 | Completed crossbar traversal for flit 3 from input 1.0 to output 11.0.
8 | network_0/router_level2_3 | Buffering flit 3 at output 11.
8 | network_0/router_level2_4 | Adding flit 4 to VC 1 at input 1 (state: idle, empty).
8 | network_0/router_level2_4 | Using precomputed lookahead routing information for VC 1 at input 1 (front: 4).
8 | network_0/router_level2_4/buf_1/vc_1 | Changing state from idle to vc_alloc.
8 | network_0/router_level2_4 | Beginning VC allocation for VC 1 at input 1 (front: 4).
8 | network_0/router_level2_4 |   Requesting VC 0 at output 15 (in_pri: 0, out_pri: 0).
8 | network_0/router_level2_4 |   VC 1 at output 15 is in use by VC 0 at input 3 (front flit: 10).
8 | network_0/router_level2_4 |   Requesting VC 2 at output 15 (in_pri: 0, out_pri: 0).
8 | network_0/router_level2_4 |   Requesting VC 3 at output 15 (in_pri: 0, out_pri: 0).
8 | network_0/router_level2_4/vc_allocator | Input requests = [ 5 -> [ 60@0 62@0 63@0 ]  21 -> [ 41@0 42@0 43@0 ]  ], output requests = [ 41 -> [ 21@0 ]  42 -> [ 21@0 ]  43 -> [ 21@0 ]  60 -> [ 5@0 ]  62 -> [ 5@0 ]  63 -> [ 5@0 ]  ].
8 | network_0/router_level2_4/vc_allocator | Input grants = [ 5 -> 60  21 -> 41  ], output grants = [ 41 -> 21  60 -> 5  ].
8 | network_0/router_level2_4 | Assigning VC 0 at output 15 to VC 1 at input 1.
8 | network_0/router_level2_4 | Beginning switch allocation for VC 0 at input 3 (front: 10).
8 | network_0/router_level2_4 |   Requesting output 15.0 (non-spec, pri: 0).
8 | network_0/router_level2_4/sw_allocator | Input requests = [ 0 -> [ 10@0 ]  2 -> [ 12@0 ]  3 -> [ 15@0 ]  7 -> [ 9@0 ]  ], output requests = [ 9 -> [ 7@0 ]  10 -> [ 0@0 ]  12 -> [ 2@0 ]  15 -> [ 3@0 ]  ].
8 | network_0/router_level2_4/sw_allocator | Input grants = [ 0 -> 10  2 -> 12  3 -> 15  7 -> 9  ], output grants = [ 9 -> 7  10 -> 0  12 -> 2  15 -> 3  ].
8 | network_0/router_level2_4 | Assigning output 15.0 to VC 0 at input 3.0.
8 | network_0/router_level2_4 | Beginning crossbar traversal for flit 8 from input 2.0 to output 12.0.
8 | network_0/router_level2_4 | Completed VC allocation for VC 1 at input 1 (front: 4).
8 | network_0/router_level2_4 |   Acquiring assigned VC 0 at output 15.
8 | network_0/router_level2_4/buf_1/vc_1 | Changing state from vc_alloc to active.
8 | network_0/router_level2_4 | Completed switch allocation for VC 0 at input 3 (front: 10).
8 | network_0/router_level2_4 |   Scheduling switch connection from input 3.0 to output 15.0.
8 | network_0/router_level2_4 | Updating lookahead routing information for flit 10.
8 | network_0/router_level2_4 | Completed crossbar traversal for flit 8 from input 2.0 to output 12.0.
8 | network_0/router_level2_4 | Buffering flit 8 at output 12.
8 | network_0/router_level2_5 | Beginning crossbar traversal for flit 2 from input 1.0 to output 15.0.
8 | network_0/router_level2_5 | Completed crossbar traversal for flit 2 from input 1.0 to output 15.0.
8 | network_0/router_level2_5 | Buffering flit 2 at output 15.
8 | network_0/router_level2_0 | Sending flit 6 to channel at output 8.
8 | network_0/router_level2_1 | Sending flit 1 to channel at output 11.
8 | network_0/router_level2_1 | Sending flit 9 to channel at output 14.
8 | network_0/router_level2_3 | Sending flit 3 to channel at output 11.
8 | network_0/router_level2_4 | Sending flit 8 to channel at output 12.
8 | network_0/router_level2_5 | Sending flit 2 to channel at output 15.
9 | network_0/network_0_fchan_12288 | Beginning channel traversal for flit 6 with delay 1.
9 | network_0/network_0_fchan_12299 | Beginning channel traversal for flit 1 with delay 1.
9 | network_0/network_0_fchan_12302 | Beginning channel traversal for flit 9 with delay 1.
9 | network_0/network_0_fchan_12315 | Beginning channel traversal for flit 3 with delay 1.
9 | network_0/network_0_fchan_12324 | Beginning channel traversal for flit 8 with delay 1.
9 | network_0/network_0_fchan_12335 | Beginning channel traversal for flit 2 with delay 1.
9 | network_0/router_level2_1 | Beginning crossbar traversal for flit 7 from input 2.0 to output 11.0.
9 | network_0/router_level2_1 | Completed crossbar traversal for flit 7 from input 2.0 to output 11.0.
9 | network_0/router_level2_1 | Buffering flit 7 at output 11.
9 | network_0/router_level2_3 | Beginning switch allocation for VC 0 at input 1 (front: 5).
9 | network_0/router_level2_3 |   Requesting output 15.0 (non-spec, pri: 0).
9 | network_0/router_level2_3/sw_allocator | Input requests = [ 1 -> [ 15@0 ]  2 -> [ 9@0 ]  3 -> [ 14@0 ]  ], output requests = [ 9 -> [ 2@0 ]  14 -> [ 3@0 ]  15 -> [ 1@0 ]  ].
9 | network_0/router_level2_3/sw_allocator | Input grants = [ 1 -> 15  2 -> 9  3 -> 14  ], output grants = [ 9 -> 2  14 -> 3  15 -> 1  ].
9 | network_0/router_level2_3 | Assigning output 15.0 to VC 0 at input 1.0.
9 | network_0/router_level2_3 | Completed switch allocation for VC 0 at input 1 (front: 5).
9 | network_0/router_level2_3 |   Scheduling switch connection from input 1.0 to output 15.0.
9 | network_0/router_level2_3 | Updating lookahead routing information for flit 5.
9 | network_0/router_level2_4 | Beginning switch allocation for VC 1 at input 1 (front: 4).
9 | network_0/router_level2_4 |   Requesting output 15.0 (non-spec, pri: 0).
9 | network_0/router_level2_4/sw_allocator | Input requests = [ 1 -> [ 15@0 ]  5 -> [ 10@0 ]  ], output requests = [ 10 -> [ 5@0 ]  15 -> [ 1@0 ]  ].
9 | network_0/router_level2_4/sw_allocator | Input grants = [ 1 -> 15  5 -> 10  ], output grants = [ 10 -> 5  15 -> 1  ].
9 | network_0/router_level2_4 | Assigning output 15.0 to VC 1 at input 1.0.
9 | network_0/router_level2_4 | Beginning crossbar traversal for flit 10 from input 3.0 to output 15.0.
9 | network_0/router_level2_4 | Completed switch allocation for VC 1 at input 1 (front: 4).
9 | network_0/router_level2_4 |   Scheduling switch connection from input 1.0 to output 15.0.
9 | network_0/router_level2_4 | Updating lookahead routing information for flit 4.
9 | network_0/router_level2_4 | Completed crossbar traversal for flit 10 from input 3.0 to output 15.0.
9 | network_0/router_level2_4 | Buffering flit 10 at output 15.
9 | network_0/network_0_fchan_12288 | Completed channel traversal for flit 6.
9 | network_0/network_0_fchan_12299 | Completed channel traversal for flit 1.
9 | network_0/network_0_fchan_12302 | Completed channel traversal for flit 9.
9 | network_0/network_0_fchan_12315 | Completed channel traversal for flit 3.
9 | network_0/network_0_fchan_12324 | Completed channel traversal for flit 8.
9 | network_0/network_0_fchan_12335 | Completed channel traversal for flit 2.
9 | network_0/router_level2_1 | Sending flit 7 to channel at output 11.
9 | network_0/router_level2_4 | Sending flit 10 to channel at output 15.
10 | network_0/network_0_fchan_12299 | Beginning channel traversal for flit 7 with delay 1.
10 | network_0/network_0_fchan_12327 | Beginning channel traversal for flit 10 with delay 1.
10 | network_0/router_level1_0 | Received flit 6 from channel at input 0.
10 | network_0/router_level1_25 | Received flit 1 from channel at input 0.
10 | network_0/router_level1_27 | Received flit 3 from channel at input 0.
10 | network_0/router_level1_36 | Received flit 8 from channel at input 0.
10 | network_0/router_level1_49 | Received flit 9 from channel at input 0.
10 | network_0/router_level1_61 | Received flit 2 from channel at input 0.
10 | network_0/router_level1_0 | Adding flit 6 to VC 0 at input 0 (state: idle, empty).
10 | network_0/router_level1_0 | Using precomputed lookahead routing information for VC 0 at input 0 (front: 6).
10 | network_0/router_level1_0/buf_0/vc_0 | Changing state from idle to vc_alloc.
10 | network_0/router_level1_0 | Beginning VC allocation for VC 0 at input 0 (front: 6).
10 | network_0/router_level1_0 |   Requesting VC 0 at output 11 (in_pri: 0, out_pri: 0).
10 | network_0/router_level1_0 |   Requesting VC 1 at output 11 (in_pri: 0, out_pri: 0).
10 | network_0/router_level1_0 |   Requesting VC 2 at output 11 (in_pri: 0, out_pri: 0).
10 | network_0/router_level1_0 |   Requesting VC 3 at output 11 (in_pri: 0, out_pri: 0).
10 | network_0/router_level1_0/vc_allocator | Input requests = [ 0 -> [ 44@0 45@0 46@0 47@0 ]  24 -> [ 36@0 37@0 38@0 39@0 ]  28 -> [ 36@0 37@0 38@0 39@0 ]  ], output requests = [ 36 -> [ 24@0 28@0 ]  37 -> [ 24@0 28@0 ]  38 -> [ 24@0 28@0 ]  39 -> [ 24@0 28@0 ]  44 -> [ 0@0 ]  45 -> [ 0@0 ]  46 -> [ 0@0 ]  47 -> [ 0@0 ]  ].
10 | network_0/router_level1_0/vc_allocator | Input grants = [ 0 -> 44  24 -> 36  ], output grants = [ 36 -> 24  44 -> 0  ].
10 | network_0/router_level1_0 | Assigning VC 0 at output 11 to VC 0 at input 0.
10 | network_0/router_level1_0 | Completed VC allocation for VC 0 at input 0 (front: 6).
10 | network_0/router_level1_0 |   Acquiring assigned VC 0 at output 11.
10 | network_0/router_level1_0/buf_0/vc_0 | Changing state from vc_alloc to active.
10 | network_0/router_level1_25 | Adding flit 1 to VC 0 at input 0 (state: idle, empty).
10 | network_0/router_level1_25 | Using precomputed lookahead routing information for VC 0 at input 0 (front: 1).
10 | network_0/router_level1_25/buf_0/vc_0 | Changing state from idle to vc_alloc.
10 | network_0/router_level1_25 | Beginning VC allocation for VC 0 at input 0 (front: 1).
10 | network_0/router_level1_25 |   Requesting VC 0 at output 9 (in_pri: 0, out_pri: 0).
10 | network_0/router_level1_25 |   Requesting VC 1 at output 9 (in_pri: 0, out_pri: 0).
10 | network_0/router_level1_25 |   Requesting VC 2 at output 9 (in_pri: 0, out_pri: 0).
10 | network_0/router_level1_25 |   Requesting VC 3 at output 9 (in_pri: 0, out_pri: 0).
10 | network_0/router_level1_25/vc_allocator | Input requests = [ 0 -> [ 36@0 37@0 38@0 39@0 ]  8 -> [ 44@0 45@0 46@0 47@0 ]  28 -> [ 36@0 37@0 38@0 39@0 ]  ], output requests = [ 36 -> [ 0@0 28@0 ]  37 -> [ 0@0 28@0 ]  38 -> [ 0@0 28@0 ]  39 -> [ 0@0 28@0 ]  44 -> [ 8@0 ]  45 -> [ 8@0 ]  46 -> [ 8@0 ]  47 -> [ 8@0 ]  ].
10 | network_0/router_level1_25/vc_allocator | Input grants = [ 0 -> 36  8 -> 44  ], output grants = [ 36 -> 0  44 -> 8  ].
10 | network_0/router_level1_25 | Assigning VC 0 at output 9 to VC 0 at input 0.
10 | network_0/router_level1_25 | Completed VC allocation for VC 0 at input 0 (front: 1).
10 | network_0/router_level1_25 |   Acquiring assigned VC 0 at output 9.
10 | network_0/router_level1_25/buf_0/vc_0 | Changing state from vc_alloc to active.
10 | network_0/router_level1_27 | Adding flit 3 to VC 0 at input 0 (state: idle, empty).
10 | network_0/router_level1_27 | Using precomputed lookahead routing information for VC 0 at input 0 (front: 3).
10 | network_0/router_level1_27/buf_0/vc_0 | Changing state from idle to vc_alloc.
10 | network_0/router_level1_27 | Beginning VC allocation for VC 0 at input 0 (front: 3).
10 | network_0/router_level1_27 |   Requesting VC 0 at output 8 (in_pri: 0, out_pri: 0).
10 | network_0/router_level1_27 |   Requesting VC 1 at output 8 (in_pri: 0, out_pri: 0).
10 | network_0/router_level1_27 |   Requesting VC 2 at output 8 (in_pri: 0, out_pri: 0).
10 | network_0/router_level1_27 |   Requesting VC 3 at output 8 (in_pri: 0, out_pri: 0).
10 | network_0/router_level1_27/vc_allocator | Input requests = [ 0 -> [ 32@0 33@0 34@0 35@0 ]  4 -> [ 32@0 33@0 34@0 35@0 ]  16 -> [ 40@0 41@0 42@0 43@0 ]  ], output requests = [ 32 -> [ 0@0 4@0 ]  33 -> [ 0@0 4@0 ]  34 -> [ 0@0 4@0 ]  35 -> [ 0@0 4@0 ]  40 -> [ 16@0 ]  41 -> [ 16@0 ]  42 -> [ 16@0 ]  43 -> [ 16@0 ]  ].
10 | network_0/router_level1_27/vc_allocator | Input grants = [ 0 -> 32  16 -> 40  ], output grants = [ 32 -> 0  40 -> 16  ].
10 | network_0/router_level1_27 | Assigning VC 0 at output 8 to VC 0 at input 0.
10 | network_0/router_level1_27 | Completed VC allocation for VC 0 at input 0 (front: 3).
10 | network_0/router_level1_27 |   Acquiring assigned VC 0 at output 8.
10 | network_0/router_level1_27/buf_0/vc_0 | Changing state from vc_alloc to active.
10 | network_0/router_level1_36 | Adding flit 8 to VC 0 at input 0 (state: idle, empty).
10 | network_0/router_level1_36 | Using precomputed lookahead routing information for VC 0 at input 0 (front: 8).
10 | network_0/router_level1_36/buf_0/vc_0 | Changing state from idle to vc_alloc.
10 | network_0/router_level1_36 | Beginning VC allocation for VC 0 at input 0 (front: 8).
10 | network_0/router_level1_36 |   Requesting VC 0 at output 10 (in_pri: 0, out_pri: 0).
10 | network_0/router_level1_36 |   Requesting VC 1 at output 10 (in_pri: 0, out_pri: 0).
10 | network_0/router_level1_36 |   Requesting VC 2 at output 10 (in_pri: 0, out_pri: 0).
10 | network_0/router_level1_36 |   Requesting VC 3 at output 10 (in_pri: 0, out_pri: 0).
10 | network_0/router_level1_36/vc_allocator | Input requests = [ 0 -> [ 40@0 41@0 42@0 43@0 ]  12 -> [ 36@0 37@0 38@0 39@0 ]  16 -> [ 32@0 33@0 34@0 35@0 ]  28 -> [ 40@0 41@0 42@0 43@0 ]  ], output requests = [ 32 -> [ 16@0 ]  33 -> [ 16@0 ]  34 -> [ 16@0 ]  35 -> [ 16@0 ]  36 -> [ 12@0 ]  37 -> [ 12@0 ]  38 -> [ 12@0 ]  39 -> [ 12@0 ]  40 -> [ 0@0 28@0 ]  41 -> [ 0@0 28@0 ]  42 -> [ 0@0 28@0 ]  43 -> [ 0@0 28@0 ]  ].
10 | network_0/router_level1_36/vc_allocator | Input grants = [ 0 -> 40  12 -> 36  16 -> 32  ], output grants = [ 32 -> 16  36 -> 12  40 -> 0  ].
10 | network_0/router_level1_36 | Assigning VC 0 at output 10 to VC 0 at input 0.
10 | network_0/router_level1_36 | Completed VC allocation for VC 0 at input 0 (front: 8).
10 | network_0/router_level1_36 |   Acquiring assigned VC 0 at output 10.
10 | network_0/router_level1_36/buf_0/vc_0 | Changing state from vc_alloc to active.
10 | network_0/router_level1_49 | Adding flit 9 to VC 0 at input 0 (state: idle, empty).
10 | network_0/router_level1_49 | Using precomputed lookahead routing information for VC 0 at input 0 (front: 9).
10 | network_0/router_level1_49/buf_0/vc_0 | Changing state from idle to vc_alloc.
10 | network_0/router_level1_49 | Beginning VC allocation for VC 0 at input 0 (front: 9).
10 | network_0/router_level1_49 |   Requesting VC 0 at output 10 (in_pri: 0, out_pri: 0).
10 | network_0/router_level1_49 |   Requesting VC 1 at output 10 (in_pri: 0, out_pri: 0).
10 | network_0/router_level1_49 |   Requesting VC 2 at output 10 (in_pri: 0, out_pri: 0).
10 | network_0/router_level1_49 |   Requesting VC 3 at output 10 (in_pri: 0, out_pri: 0).
10 | network_0/router_level1_49/vc_allocator | Input requests = [ 0 -> [ 40@0 41@0 42@0 43@0 ]  8 -> [ 20@0 21@0 22@0 23@0 ]  24 -> [ 36@0 37@0 38@0 39@0 ]  ], output requests = [ 20 -> [ 8@0 ]  21 -> [ 8@0 ]  22 -> [ 8@0 ]  23 -> [ 8@0 ]  36 -> [ 24@0 ]  37 -> [ 24@0 ]  38 -> [ 24@0 ]  39 -> [ 24@0 ]  40 -> [ 0@0 ]  41 -> [ 0@0 ]  42 -> [ 0@0 ]  43 -> [ 0@0 ]  ].
10 | network_0/router_level1_49/vc_allocator | Input grants = [ 0 -> 40  8 -> 20  24 -> 36  ], output grants = [ 20 -> 8  36 -> 24  40 -> 0  ].
10 | network_0/router_level1_49 | Assigning VC 0 at output 10 to VC 0 at input 0.
10 | network_0/router_level1_49 | Completed VC allocation for VC 0 at input 0 (front: 9).
10 | network_0/router_level1_49 |   Acquiring assigned VC 0 at output 10.
10 | network_0/router_level1_49/buf_0/vc_0 | Changing state from vc_alloc to active.
10 | network_0/router_level1_61 | Adding flit 2 to VC 0 at input 0 (state: idle, empty).
10 | network_0/router_level1_61 | Using precomputed lookahead routing information for VC 0 at input 0 (front: 2).
10 | network_0/router_level1_61/buf_0/vc_0 | Changing state from idle to vc_alloc.
10 | network_0/router_level1_61 | Beginning VC allocation for VC 0 at input 0 (front: 2).
10 | network_0/router_level1_61 |   Requesting VC 0 at output 10 (in_pri: 0, out_pri: 0).
10 | network_0/router_level1_61 |   Requesting VC 1 at output 10 (in_pri: 0, out_pri: 0).
10 | network_0/router_level1_61 |   Requesting VC 2 at output 10 (in_pri: 0, out_pri: 0).
10 | network_0/router_level1_61 |   Requesting VC 3 at output 10 (in_pri: 0, out_pri: 0).
10 | network_0/router_level1_61/vc_allocator | Input requests = [ 0 -> [ 40@0 41@0 42@0 43@0 ]  ], output requests = [ 40 -> [ 0@0 ]  41 -> [ 0@0 ]  42 -> [ 0@0 ]  43 -> [ 0@0 ]  ].
10 | network_0/router_level1_61/vc_allocator | Input grants = [ 0 -> 40  ], output grants = [ 40 -> 0  ].
10 | network_0/router_level1_61 | Assigning VC 0 at output 10 to VC 0 at input 0.
10 | network_0/router_level1_61 | Completed VC allocation for VC 0 at input 0 (front: 2).
10 | network_0/router_level1_61 |   Acquiring assigned VC 0 at output 10.
10 | network_0/router_level1_61/buf_0/vc_0 | Changing state from vc_alloc to active.
10 | network_0/router_level2_3 | Beginning crossbar traversal for flit 5 from input 1.0 to output 15.0.
10 | network_0/router_level2_3 | Completed crossbar traversal for flit 5 from input 1.0 to output 15.0.
10 | network_0/router_level2_3 | Buffering flit 5 at output 15.
10 | network_0/router_level2_4 | Beginning crossbar traversal for flit 4 from input 1.0 to output 15.0.
10 | network_0/router_level2_4 | Completed crossbar traversal for flit 4 from input 1.0 to output 15.0.
10 | network_0/router_level2_4 | Buffering flit 4 at output 15.
10 | network_0/network_0_fchan_12299 | Completed channel traversal for flit 7.
10 | network_0/network_0_fchan_12327 | Completed channel traversal for flit 10.
10 | network_0/router_level2_3 | Sending flit 5 to channel at output 15.
10 | network_0/router_level2_4 | Sending flit 4 to channel at output 15.
11 | network_0/network_0_fchan_12319 | Beginning channel traversal for flit 5 with delay 1.
11 | network_0/network_0_fchan_12327 | Beginning channel traversal for flit 4 with delay 1.
11 | network_0/router_level1_25 | Received flit 7 from channel at input 0.
11 | network_0/router_level1_60 | Received flit 10 from channel at input 0.
11 | network_0/router_level1_0 | Beginning switch allocation for VC 0 at input 0 (front: 6).
11 | network_0/router_level1_0 |   Requesting output 11.0 (non-spec, pri: 0).
11 | network_0/router_level1_0/sw_allocator | Input requests = [ 0 -> [ 11@0 ]  6 -> [ 9@0 ]  ], output requests = [ 9 -> [ 6@0 ]  11 -> [ 0@0 ]  ].
11 | network_0/router_level1_0/sw_allocator | Input grants = [ 0 -> 11  6 -> 9  ], output grants = [ 9 -> 6  11 -> 0  ].
11 | network_0/router_level1_0 | Assigning output 11.0 to VC 0 at input 0.0.
11 | network_0/router_level1_0 | Completed switch allocation for VC 0 at input 0 (front: 6).
11 | network_0/router_level1_0 |   Scheduling switch connection from input 0.0 to output 11.0.
11 | network_0/router_level1_0 | Updating lookahead routing information for flit 6.
11 | network_0/router_level1_25 | Adding flit 7 to VC 1 at input 0 (state: idle, empty).
11 | network_0/router_level1_25 | Using precomputed lookahead routing information for VC 1 at input 0 (front: 7).
11 | network_0/router_level1_25/buf_0/vc_1 | Changing state from idle to vc_alloc.
11 | network_0/router_level1_25 | Beginning VC allocation for VC 1 at input 0 (front: 7).
11 | network_0/router_level1_25 |   Requesting VC 0 at output 8 (in_pri: 0, out_pri: 0).
11 | network_0/router_level1_25 |   Requesting VC 1 at output 8 (in_pri: 0, out_pri: 0).
11 | network_0/router_level1_25 |   Requesting VC 2 at output 8 (in_pri: 0, out_pri: 0).
11 | network_0/router_level1_25 |   Requesting VC 3 at output 8 (in_pri: 0, out_pri: 0).
11 | network_0/router_level1_25/vc_allocator | Input requests = [ 1 -> [ 32@0 33@0 34@0 35@0 ]  12 -> [ 45@0 46@0 47@0 ]  28 -> [ 37@0 38@0 39@0 ]  ], output requests = [ 32 -> [ 1@0 ]  33 -> [ 1@0 ]  34 -> [ 1@0 ]  35 -> [ 1@0 ]  37 -> [ 28@0 ]  38 -> [ 28@0 ]  39 -> [ 28@0 ]  45 -> [ 12@0 ]  46 -> [ 12@0 ]  47 -> [ 12@0 ]  ].
11 | network_0/router_level1_25/vc_allocator | Input grants = [ 1 -> 32  12 -> 45  28 -> 37  ], output grants = [ 32 -> 1  37 -> 28  45 -> 12  ].
11 | network_0/router_level1_25 | Assigning VC 0 at output 8 to VC 1 at input 0.
11 | network_0/router_level1_25 | Beginning switch allocation for VC 0 at input 0 (front: 1).
11 | network_0/router_level1_25 |   Requesting output 9.0 (non-spec, pri: 0).
11 | network_0/router_level1_25/sw_allocator | Input requests = [ 0 -> [ 9@0 ]  2 -> [ 11@0 ]  ], output requests = [ 9 -> [ 0@0 ]  11 -> [ 2@0 ]  ].
11 | network_0/router_level1_25/sw_allocator | Input grants = [ 0 -> 9  2 -> 11  ], output grants = [ 9 -> 0  11 -> 2  ].
11 | network_0/router_level1_25 | Assigning output 9.0 to VC 0 at input 0.0.
11 | network_0/router_level1_25 | Completed VC allocation for VC 1 at input 0 (front: 7).
11 | network_0/router_level1_25 |   Acquiring assigned VC 0 at output 8.
11 | network_0/router_level1_25/buf_0/vc_1 | Changing state from vc_alloc to active.
11 | network_0/router_level1_25 | Completed switch allocation for VC 0 at input 0 (front: 1).
11 | network_0/router_level1_25 |   Scheduling switch connection from input 0.0 to output 9.0.
11 | network_0/router_level1_25 | Updating lookahead routing information for flit 1.
11 | network_0/router_level1_27 | Beginning switch allocation for VC 0 at input 0 (front: 3).
11 | network_0/router_level1_27 |   Requesting output 8.0 (non-spec, pri: 0).
11 | network_0/router_level1_27/sw_allocator | Input requests = [ 0 -> [ 8@0 ]  4 -> [ 10@0 ]  ], output requests = [ 8 -> [ 0@0 ]  10 -> [ 4@0 ]  ].
11 | network_0/router_level1_27/sw_allocator | Input grants = [ 0 -> 8  4 -> 10  ], output grants = [ 8 -> 0  10 -> 4  ].
11 | network_0/router_level1_27 | Assigning output 8.0 to VC 0 at input 0.0.
11 | network_0/router_level1_27 | Completed switch allocation for VC 0 at input 0 (front: 3).
11 | network_0/router_level1_27 |   Scheduling switch connection from input 0.0 to output 8.0.
11 | network_0/router_level1_27 | Updating lookahead routing information for flit 3.
11 | network_0/router_level1_36 | Beginning switch allocation for VC 0 at input 0 (front: 8).
11 | network_0/router_level1_36 |   Requesting output 10.0 (non-spec, pri: 0).
11 | network_0/router_level1_36/sw_allocator | Input requests = [ 0 -> [ 10@0 ]  3 -> [ 9@0 ]  4 -> [ 8@0 ]  ], output requests = [ 8 -> [ 4@0 ]  9 -> [ 3@0 ]  10 -> [ 0@0 ]  ].
11 | network_0/router_level1_36/sw_allocator | Input grants = [ 0 -> 10  3 -> 9  4 -> 8  ], output grants = [ 8 -> 4  9 -> 3  10 -> 0  ].
11 | network_0/router_level1_36 | Assigning output 10.0 to VC 0 at input 0.0.
11 | network_0/router_level1_36 | Completed switch allocation for VC 0 at input 0 (front: 8).
11 | network_0/router_level1_36 |   Scheduling switch connection from input 0.0 to output 10.0.
11 | network_0/router_level1_36 | Updating lookahead routing information for flit 8.
11 | network_0/router_level1_49 | Beginning switch allocation for VC 0 at input 0 (front: 9).
11 | network_0/router_level1_49 |   Requesting output 10.0 (non-spec, pri: 0).
[...]
29 | network_0/router_level3_96/sw_allocator | Input grants = [ 2 -> 15  9 -> 5  11 -> 1  13 -> 0  ], output grants = [ 0 -> 13  1 -> 11  5 -> 9  15 -> 2  ].
29 | network_0/router_level3_96 | Assigning output 0.0 to VC 1 at input 13.0.
29 | network_0/router_level3_96 | Completed switch allocation for VC 1 at input 13 (front: 2).
29 | network_0/router_level3_96 |   Scheduling switch connection from input 13.0 to output 0.0.
29 | network_0/router_level3_112 | Beginning switch allocation for VC 0 at input 12 (front: 4).
29 | network_0/router_level3_112 |   Requesting output 0.0 (non-spec, pri: 0).
29 | network_0/router_level3_112/sw_allocator | Input requests = [ 2 -> [ 13@0 ]  4 -> [ 8@0 ]  6 -> [ 9@0 ]  7 -> [ 15@0 ]  8 -> [ 3@0 ]  12 -> [ 0@0 ]  ], output requests = [ 0 -> [ 12@0 ]  3 -> [ 8@0 ]  8 -> [ 4@0 ]  9 -> [ 6@0 ]  13 -> [ 2@0 ]  15 -> [ 7@0 ]  ].
29 | network_0/router_level3_112/sw_allocator | Input grants = [ 2 -> 13  4 -> 8  6 -> 9  7 -> 15  8 -> 3  12 -> 0  ], output grants = [ 0 -> 12  3 -> 8  8 -> 4  9 -> 6  13 -> 2  15 -> 7  ].
29 | network_0/router_level3_112 | Assigning output 0.0 to VC 0 at input 12.0.
29 | network_0/router_level3_112 | Completed switch allocation for VC 0 at input 12 (front: 4).
29 | network_0/router_level3_112 |   Scheduling switch connection from input 12.0 to output 0.0.
29 | network_0/router_level3_120 | Beginning switch allocation for VC 0 at input 11 (front: 5).
29 | network_0/router_level3_120 |   Requesting output 0.0 (non-spec, pri: 0).
29 | network_0/router_level3_120/sw_allocator | Input requests = [ 1 -> [ 14@0 ]  2 -> [ 12@0 ]  3 -> [ 11@0 ]  5 -> [ 8@0 ]  11 -> [ 0@0 ]  14 -> [ 5@0 ]  ], output requests = [ 0 -> [ 11@0 ]  5 -> [ 14@0 ]  8 -> [ 5@0 ]  11 -> [ 3@0 ]  12 -> [ 2@0 ]  14 -> [ 1@0 ]  ].
29 | network_0/router_level3_120/sw_allocator | Input grants = [ 1 -> 14  2 -> 12  3 -> 11  5 -> 8  11 -> 0  14 -> 5  ], output grants = [ 0 -> 11  5 -> 14  8 -> 5  11 -> 3  12 -> 2  14 -> 1  ].
29 | network_0/router_level3_120 | Assigning output 0.0 to VC 0 at input 11.0.
29 | network_0/router_level3_120 | Completed switch allocation for VC 0 at input 11 (front: 5).
29 | network_0/router_level3_120 |   Scheduling switch connection from input 11.0 to output 0.0.
29 | network_0/router_level3_152 | Beginning crossbar traversal for flit 7 from input 9.0 to output 0.0.
29 | network_0/router_level3_152 | Completed crossbar traversal for flit 7 from input 9.0 to output 0.0.
29 | network_0/router_level3_152 | Buffering flit 7 at output 0.
29 | network_0/router_level3_240 | Beginning switch allocation for VC 0 at input 9 (front: 9).
29 | network_0/router_level3_240 |   Requesting output 0.0 (non-spec, pri: 0).
29 | network_0/router_level3_240/sw_allocator | Input requests = [ 0 -> [ 13@0 15@0 ]  2 -> [ 8@0 ]  3 -> [ 8@0 ]  5 -> [ 11@0 15@0 ]  6 -> [ 14@0 ]  7 -> [ 9@0 14@0 ]  9 -> [ 0@0 ]  10 -> [ 1@0 ]  ], output requests = [ 0 -> [ 9@0 ]  1 -> [ 10@0 ]  8 -> [ 2@0 3@0 ]  9 -> [ 7@0 ]  11 -> [ 5@0 ]  13 -> [ 0@0 ]  14 -> [ 6@0 7@0 ]  15 -> [ 0@0 5@0 ]  ].
29 | network_0/router_level3_240/sw_allocator | Input grants = [ 2 -> 8  5 -> 15  6 -> 14  9 -> 0  10 -> 1  ], output grants = [ 0 -> 9  1 -> 10  8 -> 2  14 -> 6  15 -> 5  ].
29 | network_0/router_level3_240 | Assigning output 0.0 to VC 0 at input 9.0.
29 | network_0/router_level3_240 | Completed switch allocation for VC 0 at input 9 (front: 9).
29 | network_0/router_level3_240 |   Scheduling switch connection from input 9.0 to output 0.0.
29 | network_0/router_level3_248 | Beginning crossbar traversal for flit 10 from input 12.0 to output 0.0.
29 | network_0/router_level3_248 | Completed crossbar traversal for flit 10 from input 12.0 to output 0.0.
29 | network_0/router_level3_248 | Buffering flit 10 at output 0.
29 | network_0/network_0_fchan_egress704 | Completed channel traversal for flit 1.
29 | network_0/network_0_fchan_egress832 | Completed channel traversal for flit 3.
29 | network_0/network_0_fchan_egress1152 | Completed channel traversal for flit 6.
29 | network_0/network_0_fchan_egress1280 | Completed channel traversal for flit 8.
29 | network_0/router_level3_152 | Sending flit 7 to channel at output 0.
29 | network_0/router_level3_248 | Sending flit 10 to channel at output 0.
30 | node704 | Ejecting flit 1 (packet 1) from VC 0.
30 | node832 | Ejecting flit 3 (packet 3) from VC 0.
30 | node1152 | Ejecting flit 6 (packet 6) from VC 0.
30 | node1280 | Ejecting flit 8 (packet 8) from VC 0.
30 | network_0/network_0_fchan_egress1216 | Beginning channel traversal for flit 7 with delay 1.
30 | network_0/network_0_fchan_egress1984 | Beginning channel traversal for flit 10 with delay 1.
30 | node704 | Injecting credit for VC 0 into subnet 0.
30 | node704 | Retiring flit 1 (packet 1, src = 11, dest = 704, hops = 7, flat = 30).
30 | node704 | Retiring packet 1 (plat = 30, nlat = 30, frag = 0, src = 11, dest = 704).
30 | node832 | Injecting credit for VC 0 into subnet 0.
30 | node832 | Retiring flit 3 (packet 3, src = 13, dest = 832, hops = 7, flat = 30).
30 | node832 | Retiring packet 3 (plat = 30, nlat = 30, frag = 0, src = 13, dest = 832).
30 | node1152 | Injecting credit for VC 0 into subnet 0.
30 | node1152 | Retiring flit 6 (packet 6, src = 18, dest = 1152, hops = 7, flat = 30).
30 | node1152 | Retiring packet 6 (plat = 30, nlat = 30, frag = 0, src = 18, dest = 1152).
30 | node1280 | Injecting credit for VC 0 into subnet 0.
30 | node1280 | Retiring flit 8 (packet 8, src = 20, dest = 1280, hops = 7, flat = 30).
30 | node1280 | Retiring packet 8 (plat = 30, nlat = 30, frag = 0, src = 20, dest = 1280).
30 | network_0/router_level3_96 | Beginning crossbar traversal for flit 2 from input 13.0 to output 0.0.
30 | network_0/router_level3_96 | Completed crossbar traversal for flit 2 from input 13.0 to output 0.0.
30 | network_0/router_level3_96 | Buffering flit 2 at output 0.
30 | network_0/router_level3_112 | Beginning crossbar traversal for flit 4 from input 12.0 to output 0.0.
30 | network_0/router_level3_112 | Completed crossbar traversal for flit 4 from input 12.0 to output 0.0.
30 | network_0/router_level3_112 | Buffering flit 4 at output 0.
30 | network_0/router_level3_120 | Beginning crossbar traversal for flit 5 from input 11.0 to output 0.0.
30 | network_0/router_level3_120 | Completed crossbar traversal for flit 5 from input 11.0 to output 0.0.
30 | network_0/router_level3_120 | Buffering flit 5 at output 0.
30 | network_0/router_level3_240 | Beginning crossbar traversal for flit 9 from input 9.0 to output 0.0.
30 | network_0/router_level3_240 | Completed crossbar traversal for flit 9 from input 9.0 to output 0.0.
30 | network_0/router_level3_240 | Buffering flit 9 at output 0.
30 | network_0/network_0_fchan_egress1216 | Completed channel traversal for flit 7.
30 | network_0/network_0_fchan_egress1984 | Completed channel traversal for flit 10.
30 | network_0/router_level3_96 | Sending flit 2 to channel at output 0.
30 | network_0/router_level3_112 | Sending flit 4 to channel at output 0.
30 | network_0/router_level3_120 | Sending flit 5 to channel at output 0.
30 | network_0/router_level3_240 | Sending flit 9 to channel at output 0.
31 | node1216 | Ejecting flit 7 (packet 7) from VC 0.
31 | node1984 | Ejecting flit 10 (packet 10) from VC 0.
31 | network_0/network_0_fchan_egress768 | Beginning channel traversal for flit 2 with delay 1.
31 | network_0/network_0_fchan_egress896 | Beginning channel traversal for flit 4 with delay 1.
31 | network_0/network_0_fchan_egress960 | Beginning channel traversal for flit 5 with delay 1.
31 | network_0/network_0_fchan_egress1920 | Beginning channel traversal for flit 9 with delay 1.
31 | node1216 | Injecting credit for VC 0 into subnet 0.
31 | node1216 | Retiring flit 7 (packet 7, src = 19, dest = 1216, hops = 7, flat = 31).
31 | node1216 | Retiring packet 7 (plat = 31, nlat = 31, frag = 0, src = 19, dest = 1216).
31 | node1984 | Injecting credit for VC 0 into subnet 0.
31 | node1984 | Retiring flit 10 (packet 10, src = 31, dest = 1984, hops = 7, flat = 31).
31 | node1984 | Retiring packet 10 (plat = 31, nlat = 31, frag = 0, src = 31, dest = 1984).
31 | network_0/network_0_fchan_egress768 | Completed channel traversal for flit 2.
31 | network_0/network_0_fchan_egress896 | Completed channel traversal for flit 4.
31 | network_0/network_0_fchan_egress960 | Completed channel traversal for flit 5.
31 | network_0/network_0_fchan_egress1920 | Completed channel traversal for flit 9.
32 | node768 | Ejecting flit 2 (packet 2) from VC 1.
32 | node896 | Ejecting flit 4 (packet 4) from VC 1.
32 | node960 | Ejecting flit 5 (packet 5) from VC 0.
32 | node1920 | Ejecting flit 9 (packet 9) from VC 0.
32 | node768 | Injecting credit for VC 1 into subnet 0.
32 | node768 | Retiring flit 2 (packet 2, src = 12, dest = 768, hops = 7, flat = 32).
32 | node768 | Retiring packet 2 (plat = 32, nlat = 32, frag = 0, src = 12, dest = 768).
32 | node896 | Injecting credit for VC 1 into subnet 0.
32 | node896 | Retiring flit 4 (packet 4, src = 14, dest = 896, hops = 7, flat = 32).
32 | node896 | Retiring packet 4 (plat = 32, nlat = 32, frag = 0, src = 14, dest = 896).
32 | node960 | Injecting credit for VC 0 into subnet 0.
32 | node960 | Retiring flit 5 (packet 5, src = 15, dest = 960, hops = 7, flat = 32).
32 | node960 | Retiring packet 5 (plat = 32, nlat = 32, frag = 0, src = 15, dest = 960).
32 | node1920 | Injecting credit for VC 0 into subnet 0.
32 | node1920 | Retiring flit 9 (packet 9, src = 30, dest = 1920, hops = 7, flat = 32).
32 | node1920 | Retiring packet 9 (plat = 32, nlat = 32, frag = 0, src = 30, dest = 1920).
Class 0:
Packet latency average = 65.2696
	minimum = 6
	maximum = 274
Network latency average = 65.2696
	minimum = 6
	maximum = 274
Slowest packet = 1180546
Flit latency average = 65.2696
	minimum = 6
	maximum = 274
Slowest flit = 1180546
Fragmentation average = 0
	minimum = 0
	maximum = 0
Injected packet rate average = 0.39965
	minimum = 0.343 (at node 3445)
	maximum = 0.453 (at node 3798)
Accepted packet rate average = 0.364628
	minimum = 0.311 (at node 1787)
	maximum = 0.433 (at node 3835)
Injected flit rate average = 0.39965
	minimum = 0.343 (at node 3445)
	maximum = 0.453 (at node 3798)
Accepted flit rate average= 0.364628
	minimum = 0.311 (at node 1787)
	maximum = 0.433 (at node 3835)
Injected packet length average = 1
Accepted packet length average = 1
Total in-flight flits = 143452 (0 measured)
latency change    = 1
throughput change = 1
Class 0:
Packet latency average = 85.1389
	minimum = 6
	maximum = 450
Network latency average = 85.1389
	minimum = 6
	maximum = 450
Slowest packet = 2429845
Flit latency average = 85.1389
	minimum = 6
	maximum = 450
Slowest flit = 2429845
Fragmentation average = 0
	minimum = 0
	maximum = 0
Injected packet rate average = 0.399758
	minimum = 0.357 (at node 3454)
	maximum = 0.44 (at node 790)
Accepted packet rate average = 0.375572
	minimum = 0.333 (at node 4021)
	maximum = 0.421 (at node 3124)
Injected flit rate average = 0.399758
	minimum = 0.357 (at node 3454)
	maximum = 0.44 (at node 790)
Accepted flit rate average= 0.375572
	minimum = 0.333 (at node 4021)
	maximum = 0.421 (at node 3124)
Injected packet length average = 1
Accepted packet length average = 1
Total in-flight flits = 198129 (0 measured)
latency change    = 0.233375
throughput change = 0.0291401
Class 0:
Packet latency average = 136.059
	minimum = 6
	maximum = 526
Network latency average = 136.059
	minimum = 6
	maximum = 526
Slowest packet = 3925842
Flit latency average = 136.059
	minimum = 6
	maximum = 526
Slowest flit = 3925842
Fragmentation average = 0
	minimum = 0
	maximum = 0
Injected packet rate average = 0.399958
	minimum = 0.327 (at node 3853)
	maximum = 0.454 (at node 2471)
Accepted packet rate average = 0.387349
	minimum = 0.319 (at node 892)
	maximum = 0.446 (at node 2534)
Injected flit rate average = 0.399958
	minimum = 0.327 (at node 3853)
	maximum = 0.454 (at node 2471)
Accepted flit rate average= 0.387349
	minimum = 0.319 (at node 892)
	maximum = 0.446 (at node 2534)
Injected packet length average = 1
Accepted packet length average = 1
Total in-flight flits = 249775 (0 measured)
latency change    = 0.374249
throughput change = 0.0304053
Warmed up ...Time used is 3000 cycles
Class 0:
Packet latency average = 162.995
	minimum = 6
	maximum = 742
Network latency average = 162.995
	minimum = 6
	maximum = 742
Slowest packet = 5296309
Flit latency average = 166.687
	minimum = 6
	maximum = 742
Slowest flit = 5296309
Fragmentation average = 0
	minimum = 0
	maximum = 0
Injected packet rate average = 0.399553
	minimum = 0.343 (at node 1339)
	maximum = 0.46 (at node 1910)
Accepted packet rate average = 0.387522
	minimum = 0.328 (at node 3796)
	maximum = 0.452 (at node 2470)
Injected flit rate average = 0.399553
	minimum = 0.343 (at node 1339)
	maximum = 0.46 (at node 1910)
Accepted flit rate average= 0.387522
	minimum = 0.328 (at node 3796)
	maximum = 0.452 (at node 2470)
Injected packet length average = 1
Accepted packet length average = 1
Total in-flight flits = 299057 (299057 measured)
latency change    = 0.165261
throughput change = 0.000444784
Class 0:
Packet latency average = 181.185
	minimum = 6
	maximum = 901
Network latency average = 181.162
	minimum = 6
	maximum = 895
Slowest packet = 6581964
Flit latency average = 181.578
	minimum = 6
	maximum = 895
Slowest flit = 6581964
Fragmentation average = 0
	minimum = 0
	maximum = 0
Injected packet rate average = 0.399664
	minimum = 0.3275 (at node 887)
	maximum = 0.4375 (at node 930)
Accepted packet rate average = 0.387667
	minimum = 0.3155 (at node 3533)
	maximum = 0.4375 (at node 2990)
Injected flit rate average = 0.399664
	minimum = 0.3275 (at node 887)
	maximum = 0.4375 (at node 930)
Accepted flit rate average= 0.387667
	minimum = 0.3155 (at node 3533)
	maximum = 0.4375 (at node 2990)
Injected packet length average = 1
Accepted packet length average = 1
Total in-flight flits = 348099 (348099 measured)
latency change    = 0.100392
throughput change = 0.000374398
Class 0:
Packet latency average = 197.08
	minimum = 6
	maximum = 1179
Network latency average = 196.513
	minimum = 6
	maximum = 1175
Slowest packet = 7231950
Flit latency average = 195.986
	minimum = 6
	maximum = 1175
Slowest flit = 7777265
Fragmentation average = 0
	minimum = 0
	maximum = 0
Injected packet rate average = 0.399204
	minimum = 0.345667 (at node 880)
	maximum = 0.431667 (at node 2990)
Accepted packet rate average = 0.387595
	minimum = 0.320333 (at node 2253)
	maximum = 0.432333 (at node 2990)
Injected flit rate average = 0.399204
	minimum = 0.345667 (at node 880)
	maximum = 0.431667 (at node 2990)
Accepted flit rate average= 0.387595
	minimum = 0.320333 (at node 2253)
	maximum = 0.432333 (at node 2990)
Injected packet length average = 1
Accepted packet length average = 1
Total in-flight flits = 392592 (392592 measured)
latency change    = 0.0806525
throughput change = 0.000184871
Class 0:
Packet latency average = 212.618
	minimum = 6
	maximum = 1373
Network latency average = 210.595
	minimum = 6
	maximum = 1186
Slowest packet = 7231950
Flit latency average = 209.645
	minimum = 6
	maximum = 1186
Slowest flit = 9296546
Fragmentation average = 0
	minimum = 0
	maximum = 0
Injected packet rate average = 0.398329
	minimum = 0.32225 (at node 880)
	maximum = 0.4265 (at node 956)
Accepted packet rate average = 0.387731
	minimum = 0.30375 (at node 3085)
	maximum = 0.41975 (at node 3854)
Injected flit rate average = 0.398329
	minimum = 0.32225 (at node 880)
	maximum = 0.4265 (at node 956)
Accepted flit rate average= 0.387731
	minimum = 0.30375 (at node 3085)
	maximum = 0.41975 (at node 3854)
Injected packet length average = 1
Accepted packet length average = 1
Total in-flight flits = 423793 (423793 measured)
latency change    = 0.0730817
throughput change = 0.000350094
Class 0:
Packet latency average = 227.556
	minimum = 6
	maximum = 1470
Network latency average = 222.428
	minimum = 6
	maximum = 1286
Slowest packet = 7231950
Flit latency average = 221.297
	minimum = 6
	maximum = 1286
Slowest flit = 10541944
Fragmentation average = 0
	minimum = 0
	maximum = 0
Injected packet rate average = 0.39711
	minimum = 0.3432 (at node 772)
	maximum = 0.4222 (at node 2791)
Accepted packet rate average = 0.387946
	minimum = 0.3302 (at node 3085)
	maximum = 0.421 (at node 2539)
Injected flit rate average = 0.39711
	minimum = 0.3432 (at node 772)
	maximum = 0.4222 (at node 2791)
Accepted flit rate average= 0.387946
	minimum = 0.3302 (at node 3085)
	maximum = 0.421 (at node 2539)
Injected packet length average = 1
Accepted packet length average = 1
Total in-flight flits = 438162 (438162 measured)
latency change    = 0.0656446
throughput change = 0.00055405
Class 0:
Packet latency average = 242.089
	minimum = 6
	maximum = 1702
Network latency average = 231.603
	minimum = 6
	maximum = 1528
Slowest packet = 7231950
Flit latency average = 230.42
	minimum = 6
	maximum = 1528
Slowest flit = 12077509
Fragmentation average = 0
	minimum = 0
	maximum = 0
Injected packet rate average = 0.396039
	minimum = 0.349833 (at node 2385)
	maximum = 0.4205 (at node 956)
Accepted packet rate average = 0.387912
	minimum = 0.3395 (at node 1871)
	maximum = 0.416833 (at node 308)
Injected flit rate average = 0.396039
	minimum = 0.349833 (at node 2385)
	maximum = 0.4205 (at node 956)
Accepted flit rate average= 0.387912
	minimum = 0.3395 (at node 1871)
	maximum = 0.416833 (at node 308)
Injected packet length average = 1
Accepted packet length average = 1
Total in-flight flits = 450390 (450390 measured)
latency change    = 0.0600311
throughput change = 8.84687e-05
Class 0:
Packet latency average = 256.719
	minimum = 6
	maximum = 1736
Network latency average = 239.435
	minimum = 6
	maximum = 1528
Slowest packet = 7231950
Flit latency average = 238.245
	minimum = 6
	maximum = 1528
Slowest flit = 12077509
Fragmentation average = 0
	minimum = 0
	maximum = 0
Injected packet rate average = 0.395178
	minimum = 0.340286 (at node 1341)
	maximum = 0.421429 (at node 860)
Accepted packet rate average = 0.387863
	minimum = 0.334857 (at node 3924)
	maximum = 0.414286 (at node 2015)
Injected flit rate average = 0.395178
	minimum = 0.340286 (at node 1341)
	maximum = 0.421429 (at node 860)
Accepted flit rate average= 0.387863
	minimum = 0.334857 (at node 3924)
	maximum = 0.414286 (at node 2015)
Injected packet length average = 1
Accepted packet length average = 1
Total in-flight flits = 460594 (460594 measured)
latency change    = 0.0569866
throughput change = 0.000125875
Draining all recorded packets ...
Class 0:
Remaining flits: 15776477 15877293 15881923 15884203 16023060 16024865 16027997 16057348 16085852 16090095 [...] (462552 flits)
Measured flits: 15776477 15877293 15881923 15884203 16023060 16024865 16027997 16057348 16085852 16090095 [...] (5348 flits)
Draining remaining packets ...
Time taken is 12412 cycles
====== Overall Traffic Statistics ======
====== Traffic class 0 ======
Packet latency average = 270.392 (1 samples)
	minimum = 6 (1 samples)
	maximum = 2016 (1 samples)
Network latency average = 245.868 (1 samples)
	minimum = 6 (1 samples)
	maximum = 1718 (1 samples)
Flit latency average = 251.669 (1 samples)
	minimum = 6 (1 samples)
	maximum = 1718 (1 samples)
Fragmentation average = 0 (1 samples)
	minimum = 0 (1 samples)
	maximum = 0 (1 samples)
Injected packet rate average = 0.395178 (1 samples)
	minimum = 0.340286 (1 samples)
	maximum = 0.421429 (1 samples)
Accepted packet rate average = 0.387863 (1 samples)
	minimum = 0.334857 (1 samples)
	maximum = 0.414286 (1 samples)
Injected flit rate average = 0.395178 (1 samples)
	minimum = 0.340286 (1 samples)
	maximum = 0.421429 (1 samples)
Accepted flit rate average = 0.387863 (1 samples)
	minimum = 0.334857 (1 samples)
	maximum = 0.414286 (1 samples)
Injected packet size average = 1 (1 samples)
Accepted packet size average = 1 (1 samples)
Hops average = 6.68726 (1 samples)
Total run time 1912.53
