BEGIN Configuration File: examples/fattree_config_0.80_4_uniform
// $Id: dragonflyconfig 3555 2011-05-16 23:37:55Z dub $

// Copyright (c) 2007-2015, Trustees of The Leland Stanford Junior University
// All rights reserved.
//
// Redistribution and use in source and binary forms, with or without
// modification, are permitted provided that the following conditions are met:
//
// Redistributions of source code must retain the above copyright notice, this
// list of conditions and the following disclaimer.
// Redistributions in binary form must reproduce the above copyright notice,
// this list of conditions and the following disclaimer in the documentation
// and/or other materials provided with the distribution.
//
// THIS SOFTWARE IS PROVIDED BY THE COPYRIGHT HOLDERS AND CONTRIBUTORS "AS IS"
// AND ANY EXPRESS OR IMPLIED WARRANTIES, INCLUDING, BUT NOT LIMITED TO, THE
// IMPLIED WARRANTIES OF MERCHANTABILITY AND FITNESS FOR A PARTICULAR PURPOSE
// ARE DISCLAIMED. IN NO EVENT SHALL THE COPYRIGHT OWNER OR CONTRIBUTORS BE
// LIABLE FOR ANY DIRECT, INDIRECT, INCIDENTAL, SPECIAL, EXEMPLARY, OR
// CONSEQUENTIAL DAMAGES (INCLUDING, BUT NOT LIMITED TO, PROCUREMENT OF
// SUBSTITUTE GOODS OR SERVICES; LOSS OF USE, DATA, OR PROFITS; OR BUSINESS
// INTERRUPTION) HOWEVER CAUSED AND ON ANY THEORY OF LIABILITY, WHETHER IN
// CONTRACT, STRICT LIABILITY, OR TORT (INCLUDING NEGLIGENCE OR OTHERWISE)
// ARISING IN ANY WAY OUT OF THE USE OF THIS SOFTWARE, EVEN IF ADVISED OF THE
// POSSIBILITY OF SUCH DAMAGE.


hold_switch_for_packet=1;

vc_buf_size = 16;


wait_for_tail_credit = 0;

//
// Router architecture
//
vc_allocator = separable_input_first; 
sw_allocator = separable_input_first;
alloc_iters  = 1;

credit_delay   = 2;
routing_delay  = 0;
vc_alloc_delay = 1;
sw_alloc_delay = 1;
st_final_delay = 1;

input_speedup     = 1;
output_speedup    = 1;
internal_speedup  = 1.0;


warmup_periods = 3;
sim_count          = 1;

sample_period  = 1000;  

routing_function = nca;
num_vcs     = 4;

priority = none;
traffic = uniform;


injection_rate = 0.80;
packet_size = 1;
injection_rate_uses_flits=1;

topology = fattree;

k  = 8;
n  = 4;
t = 4;

watch_file = watchfile.txt;
watch_out=-;
stats_out = examples/fattree_config_0.80_4_uniform.m;

END Configuration File: examples/fattree_config_0.80_4_uniform
Fat Tree
 k = 8 levels = 4
 each switch - total radix =  16
 # of switches = 2048
 # of channels = 24576
 # of nodes ( size of network ) = 4096
 tapering factor = 4
0 | node1 | Enqueuing flit 1 (packet 1) at time 0.
0 | node2 | Enqueuing flit 2 (packet 2) at time 0.
0 | node3 | Enqueuing flit 3 (packet 3) at time 0.
0 | node4 | Enqueuing flit 4 (packet 4) at time 0.
0 | node5 | Enqueuing flit 5 (packet 5) at time 0.
0 | node8 | Enqueuing flit 6 (packet 6) at time 0.
0 | node9 | Enqueuing flit 7 (packet 7) at time 0.
0 | node10 | Enqueuing flit 8 (packet 8) at time 0.
0 | node11 | Enqueuing flit 9 (packet 9) at time 0.
0 | node12 | Enqueuing flit 10 (packet 10) at time 0.
0 | traffic_manager | Finding output VC for flit 1:
0 | traffic_manager |   Selected output VC 0.
0 | node1 | Generating lookahead routing info for flit 1.
0 | node1 | Injecting flit 1 into subnet 0 at time 0 with priority 0.
0 | traffic_manager | Finding output VC for flit 2:
0 | traffic_manager |   Selected output VC 0.
0 | node2 | Generating lookahead routing info for flit 2.
0 | node2 | Injecting flit 2 into subnet 0 at time 0 with priority 0.
0 | traffic_manager | Finding output VC for flit 3:
0 | traffic_manager |   Selected output VC 0.
0 | node3 | Generating lookahead routing info for flit 3.
0 | node3 | Injecting flit 3 into subnet 0 at time 0 with priority 0.
0 | traffic_manager | Finding output VC for flit 4:
0 | traffic_manager |   Selected output VC 0.
0 | node4 | Generating lookahead routing info for flit 4.
0 | node4 | Injecting flit 4 into subnet 0 at time 0 with priority 0.
0 | traffic_manager | Finding output VC for flit 5:
0 | traffic_manager |   Selected output VC 0.
0 | node5 | Generating lookahead routing info for flit 5.
0 | node5 | Injecting flit 5 into subnet 0 at time 0 with priority 0.
0 | traffic_manager | Finding output VC for flit 6:
0 | traffic_manager |   Selected output VC 0.
0 | node8 | Generating lookahead routing info for flit 6.
0 | node8 | Injecting flit 6 into subnet 0 at time 0 with priority 0.
0 | traffic_manager | Finding output VC for flit 7:
0 | traffic_manager |   Selected output VC 0.
0 | node9 | Generating lookahead routing info for flit 7.
0 | node9 | Injecting flit 7 into subnet 0 at time 0 with priority 0.
0 | traffic_manager | Finding output VC for flit 8:
0 | traffic_manager |   Selected output VC 0.
0 | node10 | Generating lookahead routing info for flit 8.
0 | node10 | Injecting flit 8 into subnet 0 at time 0 with priority 0.
0 | traffic_manager | Finding output VC for flit 9:
0 | traffic_manager |   Selected output VC 0.
0 | node11 | Generating lookahead routing info for flit 9.
0 | node11 | Injecting flit 9 into subnet 0 at time 0 with priority 0.
0 | traffic_manager | Finding output VC for flit 10:
0 | traffic_manager |   Selected output VC 0.
0 | node12 | Generating lookahead routing info for flit 10.
0 | node12 | Injecting flit 10 into subnet 0 at time 0 with priority 0.
1 | network_0/network_0_fchan_ingress1 | Beginning channel traversal for flit 1 with delay 1.
1 | network_0/network_0_fchan_ingress2 | Beginning channel traversal for flit 2 with delay 1.
1 | network_0/network_0_fchan_ingress3 | Beginning channel traversal for flit 3 with delay 1.
1 | network_0/network_0_fchan_ingress4 | Beginning channel traversal for flit 4 with delay 1.
1 | network_0/network_0_fchan_ingress5 | Beginning channel traversal for flit 5 with delay 1.
1 | network_0/network_0_fchan_ingress8 | Beginning channel traversal for flit 6 with delay 1.
1 | network_0/network_0_fchan_ingress9 | Beginning channel traversal for flit 7 with delay 1.
1 | network_0/network_0_fchan_ingress10 | Beginning channel traversal for flit 8 with delay 1.
1 | network_0/network_0_fchan_ingress11 | Beginning channel traversal for flit 9 with delay 1.
1 | network_0/network_0_fchan_ingress12 | Beginning channel traversal for flit 10 with delay 1.
1 | network_0/network_0_fchan_ingress1 | Completed channel traversal for flit 1.
1 | network_0/network_0_fchan_ingress2 | Completed channel traversal for flit 2.
1 | network_0/network_0_fchan_ingress3 | Completed channel traversal for flit 3.
1 | network_0/network_0_fchan_ingress4 | Completed channel traversal for flit 4.
1 | network_0/network_0_fchan_ingress5 | Completed channel traversal for flit 5.
1 | network_0/network_0_fchan_ingress8 | Completed channel traversal for flit 6.
1 | network_0/network_0_fchan_ingress9 | Completed channel traversal for flit 7.
1 | network_0/network_0_fchan_ingress10 | Completed channel traversal for flit 8.
1 | network_0/network_0_fchan_ingress11 | Completed channel traversal for flit 9.
1 | network_0/network_0_fchan_ingress12 | Completed channel traversal for flit 10.
2 | network_0/router_level3_0 | Received flit 1 from channel at input 1.
2 | network_0/router_level3_0 | Received flit 2 from channel at input 2.
2 | network_0/router_level3_0 | Received flit 3 from channel at input 3.
2 | network_0/router_level3_0 | Received flit 4 from channel at input 4.
2 | network_0/router_level3_0 | Received flit 5 from channel at input 5.
2 | network_0/router_level3_1 | Received flit 6 from channel at input 0.
2 | network_0/router_level3_1 | Received flit 7 from channel at input 1.
2 | network_0/router_level3_1 | Received flit 8 from channel at input 2.
2 | network_0/router_level3_1 | Received flit 9 from channel at input 3.
2 | network_0/router_level3_1 | Received flit 10 from channel at input 4.
2 | network_0/router_level3_0 | Adding flit 1 to VC 0 at input 1 (state: idle, empty).
2 | network_0/router_level3_0 | Using precomputed lookahead routing information for VC 0 at input 1 (front: 1).
2 | network_0/router_level3_0/buf_1/vc_0 | Changing state from idle to vc_alloc.
2 | network_0/router_level3_0 | Adding flit 2 to VC 0 at input 2 (state: idle, empty).
2 | network_0/router_level3_0 | Using precomputed lookahead routing information for VC 0 at input 2 (front: 2).
2 | network_0/router_level3_0/buf_2/vc_0 | Changing state from idle to vc_alloc.
2 | network_0/router_level3_0 | Adding flit 3 to VC 0 at input 3 (state: idle, empty).
2 | network_0/router_level3_0 | Using precomputed lookahead routing information for VC 0 at input 3 (front: 3).
2 | network_0/router_level3_0/buf_3/vc_0 | Changing state from idle to vc_alloc.
2 | network_0/router_level3_0 | Adding flit 4 to VC 0 at input 4 (state: idle, empty).
2 | network_0/router_level3_0 | Using precomputed lookahead routing information for VC 0 at input 4 (front: 4).
2 | network_0/router_level3_0/buf_4/vc_0 | Changing state from idle to vc_alloc.
2 | network_0/router_level3_0 | Adding flit 5 to VC 0 at input 5 (state: idle, empty).
2 | network_0/router_level3_0 | Using precomputed lookahead routing information for VC 0 at input 5 (front: 5).
2 | network_0/router_level3_0/buf_5/vc_0 | Changing state from idle to vc_alloc.
2 | network_0/router_level3_0 | Beginning VC allocation for VC 0 at input 1 (front: 1).
2 | network_0/router_level3_0 |   Requesting VC 0 at output 9 (in_pri: 0, out_pri: 0).
2 | network_0/router_level3_0 |   Requesting VC 1 at output 9 (in_pri: 0, out_pri: 0).
2 | network_0/router_level3_0 |   Requesting VC 2 at output 9 (in_pri: 0, out_pri: 0).
2 | network_0/router_level3_0 |   Requesting VC 3 at output 9 (in_pri: 0, out_pri: 0).
2 | network_0/router_level3_0 | Beginning VC allocation for VC 0 at input 2 (front: 2).
2 | network_0/router_level3_0 |   Requesting VC 0 at output 8 (in_pri: 0, out_pri: 0).
2 | network_0/router_level3_0 |   Requesting VC 1 at output 8 (in_pri: 0, out_pri: 0).
2 | network_0/router_level3_0 |   Requesting VC 2 at output 8 (in_pri: 0, out_pri: 0).
2 | network_0/router_level3_0 |   Requesting VC 3 at output 8 (in_pri: 0, out_pri: 0).
2 | network_0/router_level3_0 | Beginning VC allocation for VC 0 at input 3 (front: 3).
2 | network_0/router_level3_0 |   Requesting VC 0 at output 10 (in_pri: 0, out_pri: 0).
2 | network_0/router_level3_0 |   Requesting VC 1 at output 10 (in_pri: 0, out_pri: 0).
2 | network_0/router_level3_0 |   Requesting VC 2 at output 10 (in_pri: 0, out_pri: 0).
2 | network_0/router_level3_0 |   Requesting VC 3 at output 10 (in_pri: 0, out_pri: 0).
2 | network_0/router_level3_0 | Beginning VC allocation for VC 0 at input 4 (front: 4).
2 | network_0/router_level3_0 |   Requesting VC 0 at output 12 (in_pri: 0, out_pri: 0).
2 | network_0/router_level3_0 |   Requesting VC 1 at output 12 (in_pri: 0, out_pri: 0).
2 | network_0/router_level3_0 |   Requesting VC 2 at output 12 (in_pri: 0, out_pri: 0).
2 | network_0/router_level3_0 |   Requesting VC 3 at output 12 (in_pri: 0, out_pri: 0).
2 | network_0/router_level3_0 | Beginning VC allocation for VC 0 at input 5 (front: 5).
2 | network_0/router_level3_0 |   Requesting VC 0 at output 13 (in_pri: 0, out_pri: 0).
2 | network_0/router_level3_0 |   Requesting VC 1 at output 13 (in_pri: 0, out_pri: 0).
2 | network_0/router_level3_0 |   Requesting VC 2 at output 13 (in_pri: 0, out_pri: 0).
2 | network_0/router_level3_0 |   Requesting VC 3 at output 13 (in_pri: 0, out_pri: 0).
2 | network_0/router_level3_0/vc_allocator | Input requests = [ 0 -> [ 40@0 41@0 42@0 43@0 ]  4 -> [ 36@0 37@0 38@0 39@0 ]  8 -> [ 32@0 33@0 34@0 35@0 ]  12 -> [ 40@0 41@0 42@0 43@0 ]  16 -> [ 48@0 49@0 50@0 51@0 ]  20 -> [ 52@0 53@0 54@0 55@0 ]  ], output requests = [ 32 -> [ 8@0 ]  33 -> [ 8@0 ]  34 -> [ 8@0 ]  35 -> [ 8@0 ]  36 -> [ 4@0 ]  37 -> [ 4@0 ]  38 -> [ 4@0 ]  39 -> [ 4@0 ]  40 -> [ 0@0 12@0 ]  41 -> [ 0@0 12@0 ]  42 -> [ 0@0 12@0 ]  43 -> [ 0@0 12@0 ]  48 -> [ 16@0 ]  49 -> [ 16@0 ]  50 -> [ 16@0 ]  51 -> [ 16@0 ]  52 -> [ 20@0 ]  53 -> [ 20@0 ]  54 -> [ 20@0 ]  55 -> [ 20@0 ]  ].
2 | network_0/router_level3_0/vc_allocator | Input grants = [ 0 -> 40  4 -> 36  8 -> 32  16 -> 48  20 -> 52  ], output grants = [ 32 -> 8  36 -> 4  40 -> 0  48 -> 16  52 -> 20  ].
2 | network_0/router_level3_0 | Assigning VC 0 at output 9 to VC 0 at input 1.
2 | network_0/router_level3_0 | Assigning VC 0 at output 8 to VC 0 at input 2.
2 | network_0/router_level3_0 | VC allocation failed for VC 0 at input 3.
2 | network_0/router_level3_0 | Assigning VC 0 at output 12 to VC 0 at input 4.
2 | network_0/router_level3_0 | Assigning VC 0 at output 13 to VC 0 at input 5.
2 | network_0/router_level3_0 | Completed VC allocation for VC 0 at input 1 (front: 1).
2 | network_0/router_level3_0 |   Acquiring assigned VC 0 at output 9.
2 | network_0/router_level3_0/buf_1/vc_0 | Changing state from vc_alloc to active.
2 | network_0/router_level3_0 | Completed VC allocation for VC 0 at input 2 (front: 2).
2 | network_0/router_level3_0 |   Acquiring assigned VC 0 at output 8.
2 | network_0/router_level3_0/buf_2/vc_0 | Changing state from vc_alloc to active.
2 | network_0/router_level3_0 | Completed VC allocation for VC 0 at input 3 (front: 3).
2 | network_0/router_level3_0 |   No output VC allocated.
2 | network_0/router_level3_0 | Completed VC allocation for VC 0 at input 4 (front: 4).
2 | network_0/router_level3_0 |   Acquiring assigned VC 0 at output 12.
2 | network_0/router_level3_0/buf_4/vc_0 | Changing state from vc_alloc to active.
2 | network_0/router_level3_0 | Completed VC allocation for VC 0 at input 5 (front: 5).
2 | network_0/router_level3_0 |   Acquiring assigned VC 0 at output 13.
2 | network_0/router_level3_0/buf_5/vc_0 | Changing state from vc_alloc to active.
2 | network_0/router_level3_1 | Adding flit 6 to VC 0 at input 0 (state: idle, empty).
2 | network_0/router_level3_1 | Using precomputed lookahead routing information for VC 0 at input 0 (front: 6).
2 | network_0/router_level3_1/buf_0/vc_0 | Changing state from idle to vc_alloc.
2 | network_0/router_level3_1 | Adding flit 7 to VC 0 at input 1 (state: idle, empty).
2 | network_0/router_level3_1 | Using precomputed lookahead routing information for VC 0 at input 1 (front: 7).
2 | network_0/router_level3_1/buf_1/vc_0 | Changing state from idle to vc_alloc.
2 | network_0/router_level3_1 | Adding flit 8 to VC 0 at input 2 (state: idle, empty).
2 | network_0/router_level3_1 | Using precomputed lookahead routing information for VC 0 at input 2 (front: 8).
2 | network_0/router_level3_1/buf_2/vc_0 | Changing state from idle to vc_alloc.
2 | network_0/router_level3_1 | Adding flit 9 to VC 0 at input 3 (state: idle, empty).
2 | network_0/router_level3_1 | Using precomputed lookahead routing information for VC 0 at input 3 (front: 9).
2 | network_0/router_level3_1/buf_3/vc_0 | Changing state from idle to vc_alloc.
2 | network_0/router_level3_1 | Adding flit 10 to VC 0 at input 4 (state: idle, empty).
2 | network_0/router_level3_1 | Using precomputed lookahead routing information for VC 0 at input 4 (front: 10).
2 | network_0/router_level3_1/buf_4/vc_0 | Changing state from idle to vc_alloc.
2 | network_0/router_level3_1 | Beginning VC allocation for VC 0 at input 0 (front: 6).
2 | network_0/router_level3_1 |   Requesting VC 0 at output 13 (in_pri: 0, out_pri: 0).
2 | network_0/router_level3_1 |   Requesting VC 1 at output 13 (in_pri: 0, out_pri: 0).
2 | network_0/router_level3_1 |   Requesting VC 2 at output 13 (in_pri: 0, out_pri: 0).
2 | network_0/router_level3_1 |   Requesting VC 3 at output 13 (in_pri: 0, out_pri: 0).
2 | network_0/router_level3_1 | Beginning VC allocation for VC 0 at input 1 (front: 7).
2 | network_0/router_level3_1 |   Requesting VC 0 at output 8 (in_pri: 0, out_pri: 0).
2 | network_0/router_level3_1 |   Requesting VC 1 at output 8 (in_pri: 0, out_pri: 0).
2 | network_0/router_level3_1 |   Requesting VC 2 at output 8 (in_pri: 0, out_pri: 0).
2 | network_0/router_level3_1 |   Requesting VC 3 at output 8 (in_pri: 0, out_pri: 0).
2 | network_0/router_level3_1 | Beginning VC allocation for VC 0 at input 2 (front: 8).
2 | network_0/router_level3_1 |   Requesting VC 0 at output 10 (in_pri: 0, out_pri: 0).
2 | network_0/router_level3_1 |   Requesting VC 1 at output 10 (in_pri: 0, out_pri: 0).
2 | network_0/router_level3_1 |   Requesting VC 2 at output 10 (in_pri: 0, out_pri: 0).
2 | network_0/router_level3_1 |   Requesting VC 3 at output 10 (in_pri: 0, out_pri: 0).
2 | network_0/router_level3_1 | Beginning VC allocation for VC 0 at input 3 (front: 9).
2 | network_0/router_level3_1 |   Requesting VC 0 at output 14 (in_pri: 0, out_pri: 0).
2 | network_0/router_level3_1 |   Requesting VC 1 at output 14 (in_pri: 0, out_pri: 0).
2 | network_0/router_level3_1 |   Requesting VC 2 at output 14 (in_pri: 0, out_pri: 0).
2 | network_0/router_level3_1 |   Requesting VC 3 at output 14 (in_pri: 0, out_pri: 0).
2 | network_0/router_level3_1 | Beginning VC allocation for VC 0 at input 4 (front: 10).
2 | network_0/router_level3_1 |   Requesting VC 0 at output 8 (in_pri: 0, out_pri: 0).
2 | network_0/router_level3_1 |   Requesting VC 1 at output 8 (in_pri: 0, out_pri: 0).
2 | network_0/router_level3_1 |   Requesting VC 2 at output 8 (in_pri: 0, out_pri: 0).
2 | network_0/router_level3_1 |   Requesting VC 3 at output 8 (in_pri: 0, out_pri: 0).
2 | network_0/router_level3_1/vc_allocator | Input requests = [ 0 -> [ 52@0 53@0 54@0 55@0 ]  4 -> [ 32@0 33@0 34@0 35@0 ]  8 -> [ 40@0 41@0 42@0 43@0 ]  12 -> [ 56@0 57@0 58@0 59@0 ]  16 -> [ 32@0 33@0 34@0 35@0 ]  20 -> [ 36@0 37@0 38@0 39@0 ]  24 -> [ 44@0 45@0 46@0 47@0 ]  28 -> [ 56@0 57@0 58@0 59@0 ]  ], output requests = [ 32 -> [ 4@0 16@0 ]  33 -> [ 4@0 16@0 ]  34 -> [ 4@0 16@0 ]  35 -> [ 4@0 16@0 ]  36 -> [ 20@0 ]  37 -> [ 20@0 ]  38 -> [ 20@0 ]  39 -> [ 20@0 ]  40 -> [ 8@0 ]  41 -> [ 8@0 ]  42 -> [ 8@0 ]  43 -> [ 8@0 ]  44 -> [ 24@0 ]  45 -> [ 24@0 ]  46 -> [ 24@0 ]  47 -> [ 24@0 ]  52 -> [ 0@0 ]  53 -> [ 0@0 ]  54 -> [ 0@0 ]  55 -> [ 0@0 ]  56 -> [ 12@0 28@0 ]  57 -> [ 12@0 28@0 ]  58 -> [ 12@0 28@0 ]  59 -> [ 12@0 28@0 ]  ].
2 | network_0/router_level3_1/vc_allocator | Input grants = [ 0 -> 52  4 -> 32  8 -> 40  12 -> 56  20 -> 36  24 -> 44  ], output grants = [ 32 -> 4  36 -> 20  40 -> 8  44 -> 24  52 -> 0  56 -> 12  ].
2 | network_0/router_level3_1 | Assigning VC 0 at output 13 to VC 0 at input 0.
2 | network_0/router_level3_1 | Assigning VC 0 at output 8 to VC 0 at input 1.
2 | network_0/router_level3_1 | Assigning VC 0 at output 10 to VC 0 at input 2.
2 | network_0/router_level3_1 | Assigning VC 0 at output 14 to VC 0 at input 3.
2 | network_0/router_level3_1 | VC allocation failed for VC 0 at input 4.
2 | network_0/router_level3_1 | Completed VC allocation for VC 0 at input 0 (front: 6).
2 | network_0/router_level3_1 |   Acquiring assigned VC 0 at output 13.
2 | network_0/router_level3_1/buf_0/vc_0 | Changing state from vc_alloc to active.
2 | network_0/router_level3_1 | Completed VC allocation for VC 0 at input 1 (front: 7).
2 | network_0/router_level3_1 |   Acquiring assigned VC 0 at output 8.
2 | network_0/router_level3_1/buf_1/vc_0 | Changing state from vc_alloc to active.
2 | network_0/router_level3_1 | Completed VC allocation for VC 0 at input 2 (front: 8).
2 | network_0/router_level3_1 |   Acquiring assigned VC 0 at output 10.
2 | network_0/router_level3_1/buf_2/vc_0 | Changing state from vc_alloc to active.
2 | network_0/router_level3_1 | Completed VC allocation for VC 0 at input 3 (front: 9).
2 | network_0/router_level3_1 |   Acquiring assigned VC 0 at output 14.
2 | network_0/router_level3_1/buf_3/vc_0 | Changing state from vc_alloc to active.
2 | network_0/router_level3_1 | Completed VC allocation for VC 0 at input 4 (front: 10).
2 | network_0/router_level3_1 |   No output VC allocated.
3 | network_0/router_level3_0 | Beginning VC allocation for VC 0 at input 3 (front: 3).
3 | network_0/router_level3_0 |   VC 0 at output 10 is in use by VC 0 at input 0 (front flit: 0).
3 | network_0/router_level3_0 |   Requesting VC 1 at output 10 (in_pri: 0, out_pri: 0).
3 | network_0/router_level3_0 |   Requesting VC 2 at output 10 (in_pri: 0, out_pri: 0).
3 | network_0/router_level3_0 |   Requesting VC 3 at output 10 (in_pri: 0, out_pri: 0).
3 | network_0/router_level3_0/vc_allocator | Input requests = [ 1 -> [ 56@0 57@0 58@0 59@0 ]  5 -> [ 56@0 57@0 58@0 59@0 ]  9 -> [ 44@0 45@0 46@0 47@0 ]  12 -> [ 41@0 42@0 43@0 ]  13 -> [ 49@0 50@0 51@0 ]  17 -> [ 41@0 42@0 43@0 ]  21 -> [ 49@0 50@0 51@0 ]  24 -> [ 60@0 61@0 62@0 63@0 ]  28 -> [ 44@0 45@0 46@0 47@0 ]  ], output requests = [ 41 -> [ 12@0 17@0 ]  42 -> [ 12@0 17@0 ]  43 -> [ 12@0 17@0 ]  44 -> [ 9@0 28@0 ]  45 -> [ 9@0 28@0 ]  46 -> [ 9@0 28@0 ]  47 -> [ 9@0 28@0 ]  49 -> [ 13@0 21@0 ]  50 -> [ 13@0 21@0 ]  51 -> [ 13@0 21@0 ]  56 -> [ 1@0 5@0 ]  57 -> [ 1@0 5@0 ]  58 -> [ 1@0 5@0 ]  59 -> [ 1@0 5@0 ]  60 -> [ 24@0 ]  61 -> [ 24@0 ]  62 -> [ 24@0 ]  63 -> [ 24@0 ]  ].
3 | network_0/router_level3_0/vc_allocator | Input grants = [ 1 -> 56  9 -> 44  12 -> 41  13 -> 49  24 -> 60  ], output grants = [ 41 -> 12  44 -> 9  49 -> 13  56 -> 1  60 -> 24  ].
3 | network_0/router_level3_0 | Assigning VC 1 at output 10 to VC 0 at input 3.
3 | network_0/router_level3_0 | Beginning switch allocation for VC 0 at input 1 (front: 1).
3 | network_0/router_level3_0 |   Requesting output 9.0 (non-spec, pri: 0).
3 | network_0/router_level3_0 | Beginning switch allocation for VC 0 at input 2 (front: 2).
3 | network_0/router_level3_0 |   Requesting output 8.0 (non-spec, pri: 0).
3 | network_0/router_level3_0 | Beginning switch allocation for VC 0 at input 4 (front: 4).
3 | network_0/router_level3_0 |   Requesting output 12.0 (non-spec, pri: 0).
3 | network_0/router_level3_0 | Beginning switch allocation for VC 0 at input 5 (front: 5).
3 | network_0/router_level3_0 |   Requesting output 13.0 (non-spec, pri: 0).
3 | network_0/router_level3_0/sw_allocator | Input requests = [ 0 -> [ 10@0 ]  1 -> [ 9@0 ]  2 -> [ 8@0 ]  4 -> [ 12@0 ]  5 -> [ 13@0 ]  ], output requests = [ 8 -> [ 2@0 ]  9 -> [ 1@0 ]  10 -> [ 0@0 ]  12 -> [ 4@0 ]  13 -> [ 5@0 ]  ].
3 | network_0/router_level3_0/sw_allocator | Input grants = [ 0 -> 10  1 -> 9  2 -> 8  4 -> 12  5 -> 13  ], output grants = [ 8 -> 2  9 -> 1  10 -> 0  12 -> 4  13 -> 5  ].
3 | network_0/router_level3_0 | Assigning output 9.0 to VC 0 at input 1.0.
3 | network_0/router_level3_0 | Assigning output 8.0 to VC 0 at input 2.0.
3 | network_0/router_level3_0 | Assigning output 12.0 to VC 0 at input 4.0.
3 | network_0/router_level3_0 | Assigning output 13.0 to VC 0 at input 5.0.
3 | network_0/router_level3_0 | Completed VC allocation for VC 0 at input 3 (front: 3).
3 | network_0/router_level3_0 |   Acquiring assigned VC 1 at output 10.
3 | network_0/router_level3_0/buf_3/vc_0 | Changing state from vc_alloc to active.
3 | network_0/router_level3_0 | Completed switch allocation for VC 0 at input 1 (front: 1).
3 | network_0/router_level3_0 |   Scheduling switch connection from input 1.0 to output 9.0.
3 | network_0/router_level3_0 | Updating lookahead routing information for flit 1.
3 | network_0/router_level3_0 | Completed switch allocation for VC 0 at input 2 (front: 2).
3 | network_0/router_level3_0 |   Scheduling switch connection from input 2.0 to output 8.0.
3 | network_0/router_level3_0 | Updating lookahead routing information for flit 2.
3 | network_0/router_level3_0 | Completed switch allocation for VC 0 at input 4 (front: 4).
3 | network_0/router_level3_0 |   Scheduling switch connection from input 4.0 to output 12.0.
3 | network_0/router_level3_0 | Updating lookahead routing information for flit 4.
3 | network_0/router_level3_0 | Completed switch allocation for VC 0 at input 5 (front: 5).
3 | network_0/router_level3_0 |   Scheduling switch connection from input 5.0 to output 13.0.
3 | network_0/router_level3_0 | Updating lookahead routing information for flit 5.
3 | network_0/router_level3_1 | Beginning VC allocation for VC 0 at input 4 (front: 10).
3 | network_0/router_level3_1 |   VC 0 at output 8 is in use by VC 0 at input 1 (front flit: 7).
3 | network_0/router_level3_1 |   Requesting VC 1 at output 8 (in_pri: 0, out_pri: 0).
3 | network_0/router_level3_1 |   Requesting VC 2 at output 8 (in_pri: 0, out_pri: 0).
3 | network_0/router_level3_1 |   Requesting VC 3 at output 8 (in_pri: 0, out_pri: 0).
3 | network_0/router_level3_1/vc_allocator | Input requests = [ 1 -> [ 57@0 58@0 59@0 ]  5 -> [ 33@0 34@0 35@0 ]  16 -> [ 33@0 34@0 35@0 ]  17 -> [ 45@0 46@0 47@0 ]  21 -> [ 37@0 38@0 39@0 ]  25 -> [ 37@0 38@0 39@0 ]  28 -> [ 57@0 58@0 59@0 ]  ], output requests = [ 33 -> [ 5@0 16@0 ]  34 -> [ 5@0 16@0 ]  35 -> [ 5@0 16@0 ]  37 -> [ 21@0 25@0 ]  38 -> [ 21@0 25@0 ]  39 -> [ 21@0 25@0 ]  45 -> [ 17@0 ]  46 -> [ 17@0 ]  47 -> [ 17@0 ]  57 -> [ 1@0 28@0 ]  58 -> [ 1@0 28@0 ]  59 -> [ 1@0 28@0 ]  ].
3 | network_0/router_level3_1/vc_allocator | Input grants = [ 1 -> 57  5 -> 33  17 -> 45  21 -> 37  ], output grants = [ 33 -> 5  37 -> 21  45 -> 17  57 -> 1  ].
3 | network_0/router_level3_1 | VC allocation failed for VC 0 at input 4.
3 | network_0/router_level3_1 | Beginning switch allocation for VC 0 at input 0 (front: 6).
3 | network_0/router_level3_1 |   Requesting output 13.0 (non-spec, pri: 0).
3 | network_0/router_level3_1 | Beginning switch allocation for VC 0 at input 1 (front: 7).
3 | network_0/router_level3_1 |   Requesting output 8.0 (non-spec, pri: 0).
3 | network_0/router_level3_1 | Beginning switch allocation for VC 0 at input 2 (front: 8).
3 | network_0/router_level3_1 |   Requesting output 10.0 (non-spec, pri: 0).
3 | network_0/router_level3_1 | Beginning switch allocation for VC 0 at input 3 (front: 9).
3 | network_0/router_level3_1 |   Requesting output 14.0 (non-spec, pri: 0).
3 | network_0/router_level3_1/sw_allocator | Input requests = [ 0 -> [ 13@0 ]  1 -> [ 8@0 ]  2 -> [ 10@0 ]  3 -> [ 14@0 ]  5 -> [ 9@0 ]  6 -> [ 11@0 ]  ], output requests = [ 8 -> [ 1@0 ]  9 -> [ 5@0 ]  10 -> [ 2@0 ]  11 -> [ 6@0 ]  13 -> [ 0@0 ]  14 -> [ 3@0 ]  ].
3 | network_0/router_level3_1/sw_allocator | Input grants = [ 0 -> 13  1 -> 8  2 -> 10  3 -> 14  5 -> 9  6 -> 11  ], output grants = [ 8 -> 1  9 -> 5  10 -> 2  11 -> 6  13 -> 0  14 -> 3  ].
3 | network_0/router_level3_1 | Assigning output 13.0 to VC 0 at input 0.0.
3 | network_0/router_level3_1 | Assigning output 8.0 to VC 0 at input 1.0.
3 | network_0/router_level3_1 | Assigning output 10.0 to VC 0 at input 2.0.
3 | network_0/router_level3_1 | Assigning output 14.0 to VC 0 at input 3.0.
3 | network_0/router_level3_1 | Completed VC allocation for VC 0 at input 4 (front: 10).
3 | network_0/router_level3_1 |   No output VC allocated.
3 | network_0/router_level3_1 | Completed switch allocation for VC 0 at input 0 (front: 6).
3 | network_0/router_level3_1 |   Scheduling switch connection from input 0.0 to output 13.0.
3 | network_0/router_level3_1 | Updating lookahead routing information for flit 6.
3 | network_0/router_level3_1 | Completed switch allocation for VC 0 at input 1 (front: 7).
3 | network_0/router_level3_1 |   Scheduling switch connection from input 1.0 to output 8.0.
3 | network_0/router_level3_1 | Updating lookahead routing information for flit 7.
3 | network_0/router_level3_1 | Completed switch allocation for VC 0 at input 2 (front: 8).
3 | network_0/router_level3_1 |   Scheduling switch connection from input 2.0 to output 10.0.
3 | network_0/router_level3_1 | Updating lookahead routing information for flit 8.
3 | network_0/router_level3_1 | Completed switch allocation for VC 0 at input 3 (front: 9).
3 | network_0/router_level3_1 |   Scheduling switch connection from input 3.0 to output 14.0.
3 | network_0/router_level3_1 | Updating lookahead routing information for flit 9.
4 | network_0/router_level3_0 | Beginning switch allocation for VC 0 at input 3 (front: 3).
4 | network_0/router_level3_0 |   Requesting output 10.0 (non-spec, pri: 0).
4 | network_0/router_level3_0/sw_allocator | Input requests = [ 0 -> [ 14@0 ]  2 -> [ 11@0 ]  3 -> [ 10@0 12@0 ]  6 -> [ 15@0 ]  ], output requests = [ 10 -> [ 3@0 ]  11 -> [ 2@0 ]  12 -> [ 3@0 ]  14 -> [ 0@0 ]  15 -> [ 6@0 ]  ].
4 | network_0/router_level3_0/sw_allocator | Input grants = [ 0 -> 14  2 -> 11  3 -> 10  6 -> 15  ], output grants = [ 10 -> 3  11 -> 2  14 -> 0  15 -> 6  ].
4 | network_0/router_level3_0 | Assigning output 10.0 to VC 0 at input 3.0.
4 | network_0/router_level3_0 | Beginning crossbar traversal for flit 1 from input 1.0 to output 9.0.
4 | network_0/router_level3_0 | Beginning crossbar traversal for flit 2 from input 2.0 to output 8.0.
4 | network_0/router_level3_0 | Beginning crossbar traversal for flit 4 from input 4.0 to output 12.0.
4 | network_0/router_level3_0 | Beginning crossbar traversal for flit 5 from input 5.0 to output 13.0.
4 | network_0/router_level3_0 | Completed switch allocation for VC 0 at input 3 (front: 3).
4 | network_0/router_level3_0 |   Scheduling switch connection from input 3.0 to output 10.0.
4 | network_0/router_level3_0 | Updating lookahead routing information for flit 3.
4 | network_0/router_level3_0 | Completed crossbar traversal for flit 1 from input 1.0 to output 9.0.
4 | network_0/router_level3_0 | Buffering flit 1 at output 9.
4 | network_0/router_level3_0 | Completed crossbar traversal for flit 2 from input 2.0 to output 8.0.
4 | network_0/router_level3_0 | Buffering flit 2 at output 8.
4 | network_0/router_level3_0 | Completed crossbar traversal for flit 4 from input 4.0 to output 12.0.
4 | network_0/router_level3_0 | Buffering flit 4 at output 12.
4 | network_0/router_level3_0 | Completed crossbar traversal for flit 5 from input 5.0 to output 13.0.
4 | network_0/router_level3_0 | Buffering flit 5 at output 13.
4 | network_0/router_level3_1 | Beginning VC allocation for VC 0 at input 4 (front: 10).
4 | network_0/router_level3_1 |   Requesting VC 0 at output 8 (in_pri: 0, out_pri: 0).
4 | network_0/router_level3_1 |   VC 1 at output 8 is in use by VC 1 at input 1 (front flit: 3286).
4 | network_0/router_level3_1 |   Requesting VC 2 at output 8 (in_pri: 0, out_pri: 0).
4 | network_0/router_level3_1 |   Requesting VC 3 at output 8 (in_pri: 0, out_pri: 0).
4 | network_0/router_level3_1/vc_allocator | Input requests = [ 2 -> [ 56@0 58@0 59@0 ]  6 -> [ 40@0 41@0 42@0 43@0 ]  13 -> [ 40@0 41@0 42@0 43@0 ]  16 -> [ 32@0 34@0 35@0 ]  18 -> [ 60@0 61@0 62@0 63@0 ]  22 -> [ 60@0 61@0 62@0 63@0 ]  25 -> [ 36@0 38@0 39@0 ]  28 -> [ 56@0 58@0 59@0 ]  ], output requests = [ 32 -> [ 16@0 ]  34 -> [ 16@0 ]  35 -> [ 16@0 ]  36 -> [ 25@0 ]  38 -> [ 25@0 ]  39 -> [ 25@0 ]  40 -> [ 6@0 13@0 ]  41 -> [ 6@0 13@0 ]  42 -> [ 6@0 13@0 ]  43 -> [ 6@0 13@0 ]  56 -> [ 2@0 28@0 ]  58 -> [ 2@0 28@0 ]  59 -> [ 2@0 28@0 ]  60 -> [ 18@0 22@0 ]  61 -> [ 18@0 22@0 ]  62 -> [ 18@0 22@0 ]  63 -> [ 18@0 22@0 ]  ].
4 | network_0/router_level3_1/vc_allocator | Input grants = [ 13 -> 40  16 -> 32  18 -> 60  25 -> 36  28 -> 56  ], output grants = [ 32 -> 16  36 -> 25  40 -> 13  56 -> 28  60 -> 18  ].
4 | network_0/router_level3_1 | Assigning VC 0 at output 8 to VC 0 at input 4.
4 | network_0/router_level3_1 | Beginning crossbar traversal for flit 6 from input 0.0 to output 13.0.
4 | network_0/router_level3_1 | Beginning crossbar traversal for flit 7 from input 1.0 to output 8.0.
4 | network_0/router_level3_1 | Beginning crossbar traversal for flit 8 from input 2.0 to output 10.0.
4 | network_0/router_level3_1 | Beginning crossbar traversal for flit 9 from input 3.0 to output 14.0.
4 | network_0/router_level3_1 | Completed VC allocation for VC 0 at input 4 (front: 10).
4 | network_0/router_level3_1 |   Acquiring assigned VC 0 at output 8.
4 | network_0/router_level3_1/buf_4/vc_0 | Changing state from vc_alloc to active.
4 | network_0/router_level3_1 | Completed crossbar traversal for flit 6 from input 0.0 to output 13.0.
4 | network_0/router_level3_1 | Buffering flit 6 at output 13.
4 | network_0/router_level3_1 | Completed crossbar traversal for flit 7 from input 1.0 to output 8.0.
4 | network_0/router_level3_1 | Buffering flit 7 at output 8.
4 | network_0/router_level3_1 | Completed crossbar traversal for flit 8 from input 2.0 to output 10.0.
4 | network_0/router_level3_1 | Buffering flit 8 at output 10.
4 | network_0/router_level3_1 | Completed crossbar traversal for flit 9 from input 3.0 to output 14.0.
4 | network_0/router_level3_1 | Buffering flit 9 at output 14.
4 | network_0/router_level3_0 | Sending flit 2 to channel at output 8.
4 | network_0/router_level3_0 | Sending flit 1 to channel at output 9.
4 | network_0/router_level3_0 | Sending flit 4 to channel at output 12.
4 | network_0/router_level3_0 | Sending flit 5 to channel at output 13.
4 | network_0/router_level3_1 | Sending flit 7 to channel at output 8.
4 | network_0/router_level3_1 | Sending flit 8 to channel at output 10.
4 | network_0/router_level3_1 | Sending flit 6 to channel at output 13.
4 | network_0/router_level3_1 | Sending flit 9 to channel at output 14.
5 | network_0/network_0_fchan_20480 | Beginning channel traversal for flit 2 with delay 1.
5 | network_0/network_0_fchan_20481 | Beginning channel traversal for flit 1 with delay 1.
5 | network_0/network_0_fchan_20484 | Beginning channel traversal for flit 4 with delay 1.
5 | network_0/network_0_fchan_20485 | Beginning channel traversal for flit 5 with delay 1.
5 | network_0/network_0_fchan_20488 | Beginning channel traversal for flit 7 with delay 1.
5 | network_0/network_0_fchan_20490 | Beginning channel traversal for flit 8 with delay 1.
5 | network_0/network_0_fchan_20493 | Beginning channel traversal for flit 6 with delay 1.
5 | network_0/network_0_fchan_20494 | Beginning channel traversal for flit 9 with delay 1.
5 | network_0/router_level3_0 | Beginning crossbar traversal for flit 3 from input 3.0 to output 10.0.
5 | network_0/router_level3_0 | Completed crossbar traversal for flit 3 from input 3.0 to output 10.0.
5 | network_0/router_level3_0 | Buffering flit 3 at output 10.
5 | network_0/router_level3_1 | Beginning switch allocation for VC 0 at input 4 (front: 10).
5 | network_0/router_level3_1 |   Requesting output 8.0 (non-spec, pri: 0).
5 | network_0/router_level3_1/sw_allocator | Input requests = [ 3 -> [ 10@0 ]  4 -> [ 8@0 15@0 ]  6 -> [ 9@0 ]  7 -> [ 14@0 ]  ], output requests = [ 8 -> [ 4@0 ]  9 -> [ 6@0 ]  10 -> [ 3@0 ]  14 -> [ 7@0 ]  15 -> [ 4@0 ]  ].
5 | network_0/router_level3_1/sw_allocator | Input grants = [ 3 -> 10  4 -> 15  6 -> 9  7 -> 14  ], output grants = [ 9 -> 6  10 -> 3  14 -> 7  15 -> 4  ].
5 | network_0/router_level3_1 | Switch allocation failed for VC 0 at input 4: Granted to VC 2.
5 | network_0/router_level3_1 | Completed switch allocation for VC 0 at input 4 (front: 10).
5 | network_0/router_level3_1 |   No output port allocated.
5 | network_0/network_0_fchan_20480 | Completed channel traversal for flit 2.
5 | network_0/network_0_fchan_20481 | Completed channel traversal for flit 1.
5 | network_0/network_0_fchan_20484 | Completed channel traversal for flit 4.
5 | network_0/network_0_fchan_20485 | Completed channel traversal for flit 5.
5 | network_0/network_0_fchan_20488 | Completed channel traversal for flit 7.
5 | network_0/network_0_fchan_20490 | Completed channel traversal for flit 8.
5 | network_0/network_0_fchan_20493 | Completed channel traversal for flit 6.
5 | network_0/network_0_fchan_20494 | Completed channel traversal for flit 9.
5 | network_0/router_level3_0 | Sending flit 3 to channel at output 10.
6 | network_0/network_0_fchan_20482 | Beginning channel traversal for flit 3 with delay 1.
6 | network_0/router_level2_0 | Received flit 2 from channel at input 0.
6 | network_0/router_level2_0 | Received flit 7 from channel at input 1.
6 | network_0/router_level2_1 | Received flit 1 from channel at input 0.
6 | network_0/router_level2_2 | Received flit 8 from channel at input 1.
6 | network_0/router_level2_4 | Received flit 4 from channel at input 0.
6 | network_0/router_level2_5 | Received flit 5 from channel at input 0.
6 | network_0/router_level2_5 | Received flit 6 from channel at input 1.
6 | network_0/router_level2_6 | Received flit 9 from channel at input 1.
6 | network_0/router_level2_0 | Adding flit 2 to VC 0 at input 0 (state: idle, empty).
6 | network_0/router_level2_0 | Using precomputed lookahead routing information for VC 0 at input 0 (front: 2).
6 | network_0/router_level2_0/buf_0/vc_0 | Changing state from idle to vc_alloc.
6 | network_0/router_level2_0 | Adding flit 7 to VC 0 at input 1 (state: idle, empty).
6 | network_0/router_level2_0 | Using precomputed lookahead routing information for VC 0 at input 1 (front: 7).
6 | network_0/router_level2_0/buf_1/vc_0 | Changing state from idle to vc_alloc.
6 | network_0/router_level2_0 | Beginning VC allocation for VC 0 at input 0 (front: 2).
6 | network_0/router_level2_0 |   Requesting VC 0 at output 12 (in_pri: 0, out_pri: 0).
6 | network_0/router_level2_0 |   Requesting VC 1 at output 12 (in_pri: 0, out_pri: 0).
6 | network_0/router_level2_0 |   Requesting VC 2 at output 12 (in_pri: 0, out_pri: 0).
6 | network_0/router_level2_0 |   Requesting VC 3 at output 12 (in_pri: 0, out_pri: 0).
6 | network_0/router_level2_0 | Beginning VC allocation for VC 0 at input 1 (front: 7).
6 | network_0/router_level2_0 |   Requesting VC 0 at output 11 (in_pri: 0, out_pri: 0).
6 | network_0/router_level2_0 |   Requesting VC 1 at output 11 (in_pri: 0, out_pri: 0).
6 | network_0/router_level2_0 |   Requesting VC 2 at output 11 (in_pri: 0, out_pri: 0).
6 | network_0/router_level2_0 |   Requesting VC 3 at output 11 (in_pri: 0, out_pri: 0).
6 | network_0/router_level2_0/vc_allocator | Input requests = [ 0 -> [ 48@0 49@0 50@0 51@0 ]  4 -> [ 44@0 45@0 46@0 47@0 ]  8 -> [ 48@0 49@0 50@0 51@0 ]  12 -> [ 36@0 37@0 38@0 39@0 ]  28 -> [ 52@0 53@0 54@0 55@0 ]  ], output requests = [ 36 -> [ 12@0 ]  37 -> [ 12@0 ]  38 -> [ 12@0 ]  39 -> [ 12@0 ]  44 -> [ 4@0 ]  45 -> [ 4@0 ]  46 -> [ 4@0 ]  47 -> [ 4@0 ]  48 -> [ 0@0 8@0 ]  49 -> [ 0@0 8@0 ]  50 -> [ 0@0 8@0 ]  51 -> [ 0@0 8@0 ]  52 -> [ 28@0 ]  53 -> [ 28@0 ]  54 -> [ 28@0 ]  55 -> [ 28@0 ]  ].
6 | network_0/router_level2_0/vc_allocator | Input grants = [ 0 -> 48  4 -> 44  12 -> 36  28 -> 52  ], output grants = [ 36 -> 12  44 -> 4  48 -> 0  52 -> 28  ].
6 | network_0/router_level2_0 | Assigning VC 0 at output 12 to VC 0 at input 0.
6 | network_0/router_level2_0 | Assigning VC 0 at output 11 to VC 0 at input 1.
6 | network_0/router_level2_0 | Completed VC allocation for VC 0 at input 0 (front: 2).
6 | network_0/router_level2_0 |   Acquiring assigned VC 0 at output 12.
6 | network_0/router_level2_0/buf_0/vc_0 | Changing state from vc_alloc to active.
6 | network_0/router_level2_0 | Completed VC allocation for VC 0 at input 1 (front: 7).
6 | network_0/router_level2_0 |   Acquiring assigned VC 0 at output 11.
6 | network_0/router_level2_0/buf_1/vc_0 | Changing state from vc_alloc to active.
6 | network_0/router_level2_1 | Adding flit 1 to VC 0 at input 0 (state: idle, empty).
6 | network_0/router_level2_1 | Using precomputed lookahead routing information for VC 0 at input 0 (front: 1).
6 | network_0/router_level2_1/buf_0/vc_0 | Changing state from idle to vc_alloc.
6 | network_0/router_level2_1 | Beginning VC allocation for VC 0 at input 0 (front: 1).
6 | network_0/router_level2_1 |   Requesting VC 0 at output 9 (in_pri: 0, out_pri: 0).
6 | network_0/router_level2_1 |   Requesting VC 1 at output 9 (in_pri: 0, out_pri: 0).
6 | network_0/router_level2_1 |   Requesting VC 2 at output 9 (in_pri: 0, out_pri: 0).
6 | network_0/router_level2_1 |   Requesting VC 3 at output 9 (in_pri: 0, out_pri: 0).
6 | network_0/router_level2_1/vc_allocator | Input requests = [ 0 -> [ 36@0 37@0 38@0 39@0 ]  4 -> [ 52@0 53@0 54@0 55@0 ]  12 -> [ 56@0 57@0 58@0 59@0 ]  16 -> [ 36@0 37@0 38@0 39@0 ]  20 -> [ 52@0 53@0 54@0 55@0 ]  24 -> [ 44@0 45@0 46@0 47@0 ]  ], output requests = [ 36 -> [ 0@0 16@0 ]  37 -> [ 0@0 16@0 ]  38 -> [ 0@0 16@0 ]  39 -> [ 0@0 16@0 ]  44 -> [ 24@0 ]  45 -> [ 24@0 ]  46 -> [ 24@0 ]  47 -> [ 24@0 ]  52 -> [ 4@0 20@0 ]  53 -> [ 4@0 20@0 ]  54 -> [ 4@0 20@0 ]  55 -> [ 4@0 20@0 ]  56 -> [ 12@0 ]  57 -> [ 12@0 ]  58 -> [ 12@0 ]  59 -> [ 12@0 ]  ].
6 | network_0/router_level2_1/vc_allocator | Input grants = [ 0 -> 36  4 -> 52  12 -> 56  24 -> 44  ], output grants = [ 36 -> 0  44 -> 24  52 -> 4  56 -> 12  ].
6 | network_0/router_level2_1 | Assigning VC 0 at output 9 to VC 0 at input 0.
6 | network_0/router_level2_1 | Completed VC allocation for VC 0 at input 0 (front: 1).
6 | network_0/router_level2_1 |   Acquiring assigned VC 0 at output 9.
6 | network_0/router_level2_1/buf_0/vc_0 | Changing state from vc_alloc to active.
6 | network_0/router_level2_2 | Adding flit 8 to VC 0 at input 1 (state: idle, empty).
6 | network_0/router_level2_2 | Using precomputed lookahead routing information for VC 0 at input 1 (front: 8).
6 | network_0/router_level2_2/buf_1/vc_0 | Changing state from idle to vc_alloc.
6 | network_0/router_level2_2 | Beginning VC allocation for VC 0 at input 1 (front: 8).
6 | network_0/router_level2_2 |   Requesting VC 0 at output 13 (in_pri: 0, out_pri: 0).
6 | network_0/router_level2_2 |   Requesting VC 1 at output 13 (in_pri: 0, out_pri: 0).
6 | network_0/router_level2_2 |   Requesting VC 2 at output 13 (in_pri: 0, out_pri: 0).
6 | network_0/router_level2_2 |   Requesting VC 3 at output 13 (in_pri: 0, out_pri: 0).
6 | network_0/router_level2_2/vc_allocator | Input requests = [ 0 -> [ 44@0 45@0 46@0 47@0 ]  4 -> [ 52@0 53@0 54@0 55@0 ]  8 -> [ 44@0 45@0 46@0 47@0 ]  12 -> [ 44@0 45@0 46@0 47@0 ]  20 -> [ 60@0 61@0 62@0 63@0 ]  ], output requests = [ 44 -> [ 0@0 8@0 12@0 ]  45 -> [ 0@0 8@0 12@0 ]  46 -> [ 0@0 8@0 12@0 ]  47 -> [ 0@0 8@0 12@0 ]  52 -> [ 4@0 ]  53 -> [ 4@0 ]  54 -> [ 4@0 ]  55 -> [ 4@0 ]  60 -> [ 20@0 ]  61 -> [ 20@0 ]  62 -> [ 20@0 ]  63 -> [ 20@0 ]  ].
6 | network_0/router_level2_2/vc_allocator | Input grants = [ 0 -> 44  4 -> 52  20 -> 60  ], output grants = [ 44 -> 0  52 -> 4  60 -> 20  ].
6 | network_0/router_level2_2 | Assigning VC 0 at output 13 to VC 0 at input 1.
6 | network_0/router_level2_2 | Completed VC allocation for VC 0 at input 1 (front: 8).
6 | network_0/router_level2_2 |   Acquiring assigned VC 0 at output 13.
6 | network_0/router_level2_2/buf_1/vc_0 | Changing state from vc_alloc to active.
6 | network_0/router_level2_4 | Adding flit 4 to VC 0 at input 0 (state: idle, empty).
6 | network_0/router_level2_4 | Using precomputed lookahead routing information for VC 0 at input 0 (front: 4).
6 | network_0/router_level2_4/buf_0/vc_0 | Changing state from idle to vc_alloc.
6 | network_0/router_level2_4 | Beginning VC allocation for VC 0 at input 0 (front: 4).
6 | network_0/router_level2_4 |   Requesting VC 0 at output 13 (in_pri: 0, out_pri: 0).
6 | network_0/router_level2_4 |   Requesting VC 1 at output 13 (in_pri: 0, out_pri: 0).
6 | network_0/router_level2_4 |   Requesting VC 2 at output 13 (in_pri: 0, out_pri: 0).
6 | network_0/router_level2_4 |   Requesting VC 3 at output 13 (in_pri: 0, out_pri: 0).
6 | network_0/router_level2_4/vc_allocator | Input requests = [ 0 -> [ 52@0 53@0 54@0 55@0 ]  8 -> [ 60@0 61@0 62@0 63@0 ]  12 -> [ 56@0 57@0 58@0 59@0 ]  24 -> [ 40@0 41@0 42@0 43@0 ]  ], output requests = [ 40 -> [ 24@0 ]  41 -> [ 24@0 ]  42 -> [ 24@0 ]  43 -> [ 24@0 ]  52 -> [ 0@0 ]  53 -> [ 0@0 ]  54 -> [ 0@0 ]  55 -> [ 0@0 ]  56 -> [ 12@0 ]  57 -> [ 12@0 ]  58 -> [ 12@0 ]  59 -> [ 12@0 ]  60 -> [ 8@0 ]  61 -> [ 8@0 ]  62 -> [ 8@0 ]  63 -> [ 8@0 ]  ].
6 | network_0/router_level2_4/vc_allocator | Input grants = [ 0 -> 52  8 -> 60  12 -> 56  24 -> 40  ], output grants = [ 40 -> 24  52 -> 0  56 -> 12  60 -> 8  ].
6 | network_0/router_level2_4 | Assigning VC 0 at output 13 to VC 0 at input 0.
6 | network_0/router_level2_4 | Completed VC allocation for VC 0 at input 0 (front: 4).
6 | network_0/router_level2_4 |   Acquiring assigned VC 0 at output 13.
6 | network_0/router_level2_4/buf_0/vc_0 | Changing state from vc_alloc to active.
6 | network_0/router_level2_5 | Adding flit 5 to VC 0 at input 0 (state: idle, empty).
6 | network_0/router_level2_5 | Using precomputed lookahead routing information for VC 0 at input 0 (front: 5).
6 | network_0/router_level2_5/buf_0/vc_0 | Changing state from idle to vc_alloc.
6 | network_0/router_level2_5 | Adding flit 6 to VC 0 at input 1 (state: idle, empty).
6 | network_0/router_level2_5 | Using precomputed lookahead routing information for VC 0 at input 1 (front: 6).
6 | network_0/router_level2_5/buf_1/vc_0 | Changing state from idle to vc_alloc.
6 | network_0/router_level2_5 | Beginning VC allocation for VC 0 at input 0 (front: 5).
6 | network_0/router_level2_5 |   Requesting VC 0 at output 14 (in_pri: 0, out_pri: 0).
6 | network_0/router_level2_5 |   Requesting VC 1 at output 14 (in_pri: 0, out_pri: 0).
6 | network_0/router_level2_5 |   Requesting VC 2 at output 14 (in_pri: 0, out_pri: 0).
6 | network_0/router_level2_5 |   Requesting VC 3 at output 14 (in_pri: 0, out_pri: 0).
6 | network_0/router_level2_5 | Beginning VC allocation for VC 0 at input 1 (front: 6).
6 | network_0/router_level2_5 |   Requesting VC 0 at output 13 (in_pri: 0, out_pri: 0).
6 | network_0/router_level2_5 |   Requesting VC 1 at output 13 (in_pri: 0, out_pri: 0).
6 | network_0/router_level2_5 |   Requesting VC 2 at output 13 (in_pri: 0, out_pri: 0).
6 | network_0/router_level2_5 |   Requesting VC 3 at output 13 (in_pri: 0, out_pri: 0).
6 | network_0/router_level2_5/vc_allocator | Input requests = [ 0 -> [ 56@0 57@0 58@0 59@0 ]  4 -> [ 52@0 53@0 54@0 55@0 ]  8 -> [ 60@0 61@0 62@0 63@0 ]  20 -> [ 44@0 45@0 46@0 47@0 ]  24 -> [ 52@0 53@0 54@0 55@0 ]  28 -> [ 52@0 53@0 54@0 55@0 ]  ], output requests = [ 44 -> [ 20@0 ]  45 -> [ 20@0 ]  46 -> [ 20@0 ]  47 -> [ 20@0 ]  52 -> [ 4@0 24@0 28@0 ]  53 -> [ 4@0 24@0 28@0 ]  54 -> [ 4@0 24@0 28@0 ]  55 -> [ 4@0 24@0 28@0 ]  56 -> [ 0@0 ]  57 -> [ 0@0 ]  58 -> [ 0@0 ]  59 -> [ 0@0 ]  60 -> [ 8@0 ]  61 -> [ 8@0 ]  62 -> [ 8@0 ]  63 -> [ 8@0 ]  ].
6 | network_0/router_level2_5/vc_allocator | Input grants = [ 0 -> 56  4 -> 52  8 -> 60  20 -> 44  ], output grants = [ 44 -> 20  52 -> 4  56 -> 0  60 -> 8  ].
6 | network_0/router_level2_5 | Assigning VC 0 at output 14 to VC 0 at input 0.
6 | network_0/router_level2_5 | Assigning VC 0 at output 13 to VC 0 at input 1.
6 | network_0/router_level2_5 | Completed VC allocation for VC 0 at input 0 (front: 5).
6 | network_0/router_level2_5 |   Acquiring assigned VC 0 at output 14.
6 | network_0/router_level2_5/buf_0/vc_0 | Changing state from vc_alloc to active.
6 | network_0/router_level2_5 | Completed VC allocation for VC 0 at input 1 (front: 6).
6 | network_0/router_level2_5 |   Acquiring assigned VC 0 at output 13.
6 | network_0/router_level2_5/buf_1/vc_0 | Changing state from vc_alloc to active.
6 | network_0/router_level2_6 | Adding flit 9 to VC 0 at input 1 (state: idle, empty).
6 | network_0/router_level2_6 | Using precomputed lookahead routing information for VC 0 at input 1 (front: 9).
6 | network_0/router_level2_6/buf_1/vc_0 | Changing state from idle to vc_alloc.
6 | network_0/router_level2_6 | Beginning VC allocation for VC 0 at input 1 (front: 9).
6 | network_0/router_level2_6 |   Requesting VC 0 at output 8 (in_pri: 0, out_pri: 0).
6 | network_0/router_level2_6 |   Requesting VC 1 at output 8 (in_pri: 0, out_pri: 0).
6 | network_0/router_level2_6 |   Requesting VC 2 at output 8 (in_pri: 0, out_pri: 0).
6 | network_0/router_level2_6 |   Requesting VC 3 at output 8 (in_pri: 0, out_pri: 0).
6 | network_0/router_level2_6/vc_allocator | Input requests = [ 4 -> [ 32@0 33@0 34@0 35@0 ]  8 -> [ 32@0 33@0 34@0 35@0 ]  12 -> [ 32@0 33@0 34@0 35@0 ]  16 -> [ 40@0 41@0 42@0 43@0 ]  24 -> [ 48@0 49@0 50@0 51@0 ]  28 -> [ 40@0 41@0 42@0 43@0 ]  ], output requests = [ 32 -> [ 4@0 8@0 12@0 ]  33 -> [ 4@0 8@0 12@0 ]  34 -> [ 4@0 8@0 12@0 ]  35 -> [ 4@0 8@0 12@0 ]  40 -> [ 16@0 28@0 ]  41 -> [ 16@0 28@0 ]  42 -> [ 16@0 28@0 ]  43 -> [ 16@0 28@0 ]  48 -> [ 24@0 ]  49 -> [ 24@0 ]  50 -> [ 24@0 ]  51 -> [ 24@0 ]  ].
6 | network_0/router_level2_6/vc_allocator | Input grants = [ 4 -> 32  16 -> 40  24 -> 48  ], output grants = [ 32 -> 4  40 -> 16  48 -> 24  ].
6 | network_0/router_level2_6 | Assigning VC 0 at output 8 to VC 0 at input 1.
6 | network_0/router_level2_6 | Completed VC allocation for VC 0 at input 1 (front: 9).
6 | network_0/router_level2_6 |   Acquiring assigned VC 0 at output 8.
6 | network_0/router_level2_6/buf_1/vc_0 | Changing state from vc_alloc to active.
6 | network_0/router_level3_1 | Beginning switch allocation for VC 0 at input 4 (front: 10).
6 | network_0/router_level3_1 |   Requesting output 8.0 (non-spec, pri: 0).
6 | network_0/router_level3_1/sw_allocator | Input requests = [ 0 -> [ 14@0 15@0 ]  1 -> [ 10@0 ]  2 -> [ 8@0 ]  4 -> [ 8@0 ]  6 -> [ 11@0 ]  7 -> [ 13@0 ]  ], output requests = [ 8 -> [ 2@0 4@0 ]  10 -> [ 1@0 ]  11 -> [ 6@0 ]  13 -> [ 7@0 ]  14 -> [ 0@0 ]  15 -> [ 0@0 ]  ].
6 | network_0/router_level3_1/sw_allocator | Input grants = [ 0 -> 15  1 -> 10  2 -> 8  6 -> 11  7 -> 13  ], output grants = [ 8 -> 2  10 -> 1  11 -> 6  13 -> 7  15 -> 0  ].
6 | network_0/router_level3_1 | Switch allocation failed for VC 0 at input 4: No output granted.
6 | network_0/router_level3_1 | Completed switch allocation for VC 0 at input 4 (front: 10).
6 | network_0/router_level3_1 |   No output port allocated.
6 | network_0/network_0_fchan_20482 | Completed channel traversal for flit 3.
7 | network_0/router_level2_2 | Received flit 3 from channel at input 0.
7 | network_0/router_level2_0 | Beginning switch allocation for VC 0 at input 0 (front: 2).
7 | network_0/router_level2_0 |   Requesting output 12.0 (non-spec, pri: 0).
7 | network_0/router_level2_0 | Beginning switch allocation for VC 0 at input 1 (front: 7).
7 | network_0/router_level2_0 |   Requesting output 11.0 (non-spec, pri: 0).
7 | network_0/router_level2_0/sw_allocator | Input requests = [ 0 -> [ 12@0 ]  1 -> [ 11@0 ]  3 -> [ 9@0 ]  7 -> [ 13@0 ]  ], output requests = [ 9 -> [ 3@0 ]  11 -> [ 1@0 ]  12 -> [ 0@0 ]  13 -> [ 7@0 ]  ].
7 | network_0/router_level2_0/sw_allocator | Input grants = [ 0 -> 12  1 -> 11  3 -> 9  7 -> 13  ], output grants = [ 9 -> 3  11 -> 1  12 -> 0  13 -> 7  ].
7 | network_0/router_level2_0 | Assigning output 12.0 to VC 0 at input 0.0.
7 | network_0/router_level2_0 | Assigning output 11.0 to VC 0 at input 1.0.
7 | network_0/router_level2_0 | Completed switch allocation for VC 0 at input 0 (front: 2).
7 | network_0/router_level2_0 |   Scheduling switch connection from input 0.0 to output 12.0.
7 | network_0/router_level2_0 | Updating lookahead routing information for flit 2.
7 | network_0/router_level2_0 | Completed switch allocation for VC 0 at input 1 (front: 7).
7 | network_0/router_level2_0 |   Scheduling switch connection from input 1.0 to output 11.0.
7 | network_0/router_level2_0 | Updating lookahead routing information for flit 7.
7 | network_0/router_level2_1 | Beginning switch allocation for VC 0 at input 0 (front: 1).
7 | network_0/router_level2_1 |   Requesting output 9.0 (non-spec, pri: 0).
7 | network_0/router_level2_1/sw_allocator | Input requests = [ 0 -> [ 9@0 ]  1 -> [ 13@0 ]  3 -> [ 14@0 ]  6 -> [ 11@0 ]  ], output requests = [ 9 -> [ 0@0 ]  11 -> [ 6@0 ]  13 -> [ 1@0 ]  14 -> [ 3@0 ]  ].
7 | network_0/router_level2_1/sw_allocator | Input grants = [ 0 -> 9  1 -> 13  3 -> 14  6 -> 11  ], output grants = [ 9 -> 0  11 -> 6  13 -> 1  14 -> 3  ].
7 | network_0/router_level2_1 | Assigning output 9.0 to VC 0 at input 0.0.
7 | network_0/router_level2_1 | Completed switch allocation for VC 0 at input 0 (front: 1).
7 | network_0/router_level2_1 |   Scheduling switch connection from input 0.0 to output 9.0.
7 | network_0/router_level2_1 | Updating lookahead routing information for flit 1.
7 | network_0/router_level2_2 | Adding flit 3 to VC 1 at input 0 (state: idle, empty).
7 | network_0/router_level2_2 | Using precomputed lookahead routing information for VC 1 at input 0 (front: 3).
7 | network_0/router_level2_2/buf_0/vc_1 | Changing state from idle to vc_alloc.
7 | network_0/router_level2_2 | Beginning VC allocation for VC 1 at input 0 (front: 3).
7 | network_0/router_level2_2 |   VC 0 at output 11 is in use by VC 0 at input 0 (front flit: 0).
7 | network_0/router_level2_2 |   Requesting VC 1 at output 11 (in_pri: 0, out_pri: 0).
7 | network_0/router_level2_2 |   Requesting VC 2 at output 11 (in_pri: 0, out_pri: 0).
7 | network_0/router_level2_2 |   Requesting VC 3 at output 11 (in_pri: 0, out_pri: 0).
7 | network_0/router_level2_2/vc_allocator | Input requests = [ 1 -> [ 45@0 46@0 47@0 ]  8 -> [ 45@0 46@0 47@0 ]  12 -> [ 45@0 46@0 47@0 ]  13 -> [ 32@0 33@0 34@0 35@0 ]  16 -> [ 45@0 46@0 47@0 ]  24 -> [ 28@0 29@0 30@0 31@0 ]  ], output requests = [ 28 -> [ 24@0 ]  29 -> [ 24@0 ]  30 -> [ 24@0 ]  31 -> [ 24@0 ]  32 -> [ 13@0 ]  33 -> [ 13@0 ]  34 -> [ 13@0 ]  35 -> [ 13@0 ]  45 -> [ 1@0 8@0 12@0 16@0 ]  46 -> [ 1@0 8@0 12@0 16@0 ]  47 -> [ 1@0 8@0 12@0 16@0 ]  ].
7 | network_0/router_level2_2/vc_allocator | Input grants = [ 1 -> 45  13 -> 32  24 -> 28  ], output grants = [ 28 -> 24  32 -> 13  45 -> 1  ].
7 | network_0/router_level2_2 | Assigning VC 1 at output 11 to VC 1 at input 0.
7 | network_0/router_level2_2 | Beginning switch allocation for VC 0 at input 1 (front: 8).
7 | network_0/router_level2_2 |   Requesting output 13.0 (non-spec, pri: 0).
7 | network_0/router_level2_2/sw_allocator | Input requests = [ 0 -> [ 11@0 ]  1 -> [ 13@0 ]  5 -> [ 15@0 ]  ], output requests = [ 11 -> [ 0@0 ]  13 -> [ 1@0 ]  15 -> [ 5@0 ]  ].
7 | network_0/router_level2_2/sw_allocator | Input grants = [ 0 -> 11  1 -> 13  5 -> 15  ], output grants = [ 11 -> 0  13 -> 1  15 -> 5  ].
7 | network_0/router_level2_2 | Assigning output 13.0 to VC 0 at input 1.0.
7 | network_0/router_level2_2 | Completed VC allocation for VC 1 at input 0 (front: 3).
7 | network_0/router_level2_2 |   Acquiring assigned VC 1 at output 11.
7 | network_0/router_level2_2/buf_0/vc_1 | Changing state from vc_alloc to active.
7 | network_0/router_level2_2 | Completed switch allocation for VC 0 at input 1 (front: 8).
7 | network_0/router_level2_2 |   Scheduling switch connection from input 1.0 to output 13.0.
7 | network_0/router_level2_2 | Updating lookahead routing information for flit 8.
7 | network_0/router_level2_4 | Beginning switch allocation for VC 0 at input 0 (front: 4).
7 | network_0/router_level2_4 |   Requesting output 13.0 (non-spec, pri: 0).
7 | network_0/router_level2_4/sw_allocator | Input requests = [ 0 -> [ 13@0 ]  2 -> [ 15@0 ]  3 -> [ 14@0 ]  6 -> [ 10@0 ]  ], output requests = [ 10 -> [ 6@0 ]  13 -> [ 0@0 ]  14 -> [ 3@0 ]  15 -> [ 2@0 ]  ].
7 | network_0/router_level2_4/sw_allocator | Input grants = [ 0 -> 13  2 -> 15  3 -> 14  6 -> 10  ], output grants = [ 10 -> 6  13 -> 0  14 -> 3  15 -> 2  ].
7 | network_0/router_level2_4 | Assigning output 13.0 to VC 0 at input 0.0.
7 | network_0/router_level2_4 | Completed switch allocation for VC 0 at input 0 (front: 4).
7 | network_0/router_level2_4 |   Scheduling switch connection from input 0.0 to output 13.0.
7 | network_0/router_level2_4 | Updating lookahead routing information for flit 4.
7 | network_0/router_level2_5 | Beginning switch allocation for VC 0 at input 0 (front: 5).
7 | network_0/router_level2_5 |   Requesting output 14.0 (non-spec, pri: 0).
7 | network_0/router_level2_5 | Beginning switch allocation for VC 0 at input 1 (front: 6).
7 | network_0/router_level2_5 |   Requesting output 13.0 (non-spec, pri: 0).
7 | network_0/router_level2_5/sw_allocator | Input requests = [ 0 -> [ 14@0 ]  1 -> [ 13@0 ]  2 -> [ 15@0 ]  5 -> [ 11@0 ]  ], output requests = [ 11 -> [ 5@0 ]  13 -> [ 1@0 ]  14 -> [ 0@0 ]  15 -> [ 2@0 ]  ].
7 | network_0/router_level2_5/sw_allocator | Input grants = [ 0 -> 14  1 -> 13  2 -> 15  5 -> 11  ], output grants = [ 11 -> 5  13 -> 1  14 -> 0  15 -> 2  ].
7 | network_0/router_level2_5 | Assigning output 14.0 to VC 0 at input 0.0.
7 | network_0/router_level2_5 | Assigning output 13.0 to VC 0 at input 1.0.
7 | network_0/router_level2_5 | Completed switch allocation for VC 0 at input 0 (front: 5).
7 | network_0/router_level2_5 |   Scheduling switch connection from input 0.0 to output 14.0.
7 | network_0/router_level2_5 | Updating lookahead routing information for flit 5.
7 | network_0/router_level2_5 | Completed switch allocation for VC 0 at input 1 (front: 6).
7 | network_0/router_level2_5 |   Scheduling switch connection from input 1.0 to output 13.0.
7 | network_0/router_level2_5 | Updating lookahead routing information for flit 6.
7 | network_0/router_level2_6 | Beginning switch allocation for VC 0 at input 1 (front: 9).
7 | network_0/router_level2_6 |   Requesting output 8.0 (non-spec, pri: 0).
7 | network_0/router_level2_6/sw_allocator | Input requests = [ 1 -> [ 8@0 ]  4 -> [ 10@0 ]  6 -> [ 12@0 ]  ], output requests = [ 8 -> [ 1@0 ]  10 -> [ 4@0 ]  12 -> [ 6@0 ]  ].
7 | network_0/router_level2_6/sw_allocator | Input grants = [ 1 -> 8  4 -> 10  6 -> 12  ], output grants = [ 8 -> 1  10 -> 4  12 -> 6  ].
7 | network_0/router_level2_6 | Assigning output 8.0 to VC 0 at input 1.0.
7 | network_0/router_level2_6 | Completed switch allocation for VC 0 at input 1 (front: 9).
7 | network_0/router_level2_6 |   Scheduling switch connection from input 1.0 to output 8.0.
7 | network_0/router_level2_6 | Updating lookahead routing information for flit 9.
7 | network_0/router_level3_1 | Beginning switch allocation for VC 0 at input 4 (front: 10).
7 | network_0/router_level3_1 |   Requesting output 8.0 (non-spec, pri: 0).
7 | network_0/router_level3_1/sw_allocator | Input requests = [ 0 -> [ 13@0 14@0 ]  1 -> [ 12@0 14@0 ]  2 -> [ 8@0 ]  4 -> [ 8@0 ]  5 -> [ 10@0 15@0 ]  6 -> [ 9@0 ]  ], output requests = [ 8 -> [ 2@0 4@0 ]  9 -> [ 6@0 ]  10 -> [ 5@0 ]  12 -> [ 1@0 ]  13 -> [ 0@0 ]  14 -> [ 0@0 1@0 ]  15 -> [ 5@0 ]  ].
7 | network_0/router_level3_1/sw_allocator | Input grants = [ 0 -> 13  1 -> 12  4 -> 8  5 -> 10  6 -> 9  ], output grants = [ 8 -> 4  9 -> 6  10 -> 5  12 -> 1  13 -> 0  ].
7 | network_0/router_level3_1 | Assigning output 8.0 to VC 0 at input 4.0.
7 | network_0/router_level3_1 | Completed switch allocation for VC 0 at input 4 (front: 10).
7 | network_0/router_level3_1 |   Scheduling switch connection from input 4.0 to output 8.0.
7 | network_0/router_level3_1 | Updating lookahead routing information for flit 10.
8 | network_0/router_level2_0 | Beginning crossbar traversal for flit 2 from input 0.0 to output 12.0.
8 | network_0/router_level2_0 | Beginning crossbar traversal for flit 7 from input 1.0 to output 11.0.
8 | network_0/router_level2_0 | Completed crossbar traversal for flit 2 from input 0.0 to output 12.0.
8 | network_0/router_level2_0 | Buffering flit 2 at output 12.
8 | network_0/router_level2_0 | Completed crossbar traversal for flit 7 from input 1.0 to output 11.0.
8 | network_0/router_level2_0 | Buffering flit 7 at output 11.
8 | network_0/router_level2_1 | Beginning crossbar traversal for flit 1 from input 0.0 to output 9.0.
8 | network_0/router_level2_1 | Completed crossbar traversal for flit 1 from input 0.0 to output 9.0.
8 | network_0/router_level2_1 | Buffering flit 1 at output 9.
8 | network_0/router_level2_2 | Beginning switch allocation for VC 1 at input 0 (front: 3).
8 | network_0/router_level2_2 |   Requesting output 11.0 (non-spec, pri: 0).
8 | network_0/router_level2_2/sw_allocator | Input requests = [ 0 -> [ 11@0 ]  3 -> [ 8@0 ]  6 -> [ 7@0 ]  ], output requests = [ 7 -> [ 6@0 ]  8 -> [ 3@0 ]  11 -> [ 0@0 ]  ].
8 | network_0/router_level2_2/sw_allocator | Input grants = [ 0 -> 11  3 -> 8  6 -> 7  ], output grants = [ 7 -> 6  8 -> 3  11 -> 0  ].
8 | network_0/router_level2_2 | Assigning output 11.0 to VC 1 at input 0.0.
8 | network_0/router_level2_2 | Beginning crossbar traversal for flit 8 from input 1.0 to output 13.0.
8 | network_0/router_level2_2 | Completed switch allocation for VC 1 at input 0 (front: 3).
8 | network_0/router_level2_2 |   Scheduling switch connection from input 0.0 to output 11.0.
8 | network_0/router_level2_2 | Updating lookahead routing information for flit 3.
8 | network_0/router_level2_2 | Completed crossbar traversal for flit 8 from input 1.0 to output 13.0.
8 | network_0/router_level2_2 | Buffering flit 8 at output 13.
8 | network_0/router_level2_4 | Beginning crossbar traversal for flit 4 from input 0.0 to output 13.0.
8 | network_0/router_level2_4 | Completed crossbar traversal for flit 4 from input 0.0 to output 13.0.
8 | network_0/router_level2_4 | Buffering flit 4 at output 13.
8 | network_0/router_level2_5 | Beginning crossbar traversal for flit 5 from input 0.0 to output 14.0.
8 | network_0/router_level2_5 | Beginning crossbar traversal for flit 6 from input 1.0 to output 13.0.
8 | network_0/router_level2_5 | Completed crossbar traversal for flit 5 from input 0.0 to output 14.0.
8 | network_0/router_level2_5 | Buffering flit 5 at output 14.
8 | network_0/router_level2_5 | Completed crossbar traversal for flit 6 from input 1.0 to output 13.0.
8 | network_0/router_level2_5 | Buffering flit 6 at output 13.
8 | network_0/router_level2_6 | Beginning crossbar traversal for flit 9 from input 1.0 to output 8.0.
8 | network_0/router_level2_6 | Completed crossbar traversal for flit 9 from input 1.0 to output 8.0.
8 | network_0/router_level2_6 | Buffering flit 9 at output 8.
8 | network_0/router_level3_1 | Beginning crossbar traversal for flit 10 from input 4.0 to output 8.0.
8 | network_0/router_level3_1 | Completed crossbar traversal for flit 10 from input 4.0 to output 8.0.
8 | network_0/router_level3_1 | Buffering flit 10 at output 8.
8 | network_0/router_level2_0 | Sending flit 7 to channel at output 11.
8 | network_0/router_level2_0 | Sending flit 2 to channel at output 12.
8 | network_0/router_level2_1 | Sending flit 1 to channel at output 9.
8 | network_0/router_level2_2 | Sending flit 8 to channel at output 13.
8 | network_0/router_level2_4 | Sending flit 4 to channel at output 13.
8 | network_0/router_level2_5 | Sending flit 6 to channel at output 13.
8 | network_0/router_level2_5 | Sending flit 5 to channel at output 14.
8 | network_0/router_level2_6 | Sending flit 9 to channel at output 8.
8 | network_0/router_level3_1 | Sending flit 10 to channel at output 8.
9 | network_0/network_0_fchan_12291 | Beginning channel traversal for flit 7 with delay 1.
9 | network_0/network_0_fchan_12292 | Beginning channel traversal for flit 2 with delay 1.
9 | network_0/network_0_fchan_12297 | Beginning channel traversal for flit 1 with delay 1.
9 | network_0/network_0_fchan_12309 | Beginning channel traversal for flit 8 with delay 1.
9 | network_0/network_0_fchan_12325 | Beginning channel traversal for flit 4 with delay 1.
9 | network_0/network_0_fchan_12333 | Beginning channel traversal for flit 6 with delay 1.
9 | network_0/network_0_fchan_12334 | Beginning channel traversal for flit 5 with delay 1.
9 | network_0/network_0_fchan_12336 | Beginning channel traversal for flit 9 with delay 1.
9 | network_0/network_0_fchan_20488 | Beginning channel traversal for flit 10 with delay 1.
9 | network_0/router_level2_2 | Beginning crossbar traversal for flit 3 from input 0.0 to output 11.0.
9 | network_0/router_level2_2 | Completed crossbar traversal for flit 3 from input 0.0 to output 11.0.
9 | network_0/router_level2_2 | Buffering flit 3 at output 11.
9 | network_0/network_0_fchan_12291 | Completed channel traversal for flit 7.
9 | network_0/network_0_fchan_12292 | Completed channel traversal for flit 2.
9 | network_0/network_0_fchan_12297 | Completed channel traversal for flit 1.
9 | network_0/network_0_fchan_12309 | Completed channel traversal for flit 8.
9 | network_0/network_0_fchan_12325 | Completed channel traversal for flit 4.
9 | network_0/network_0_fchan_12333 | Completed channel traversal for flit 6.
9 | network_0/network_0_fchan_12334 | Completed channel traversal for flit 5.
9 | network_0/network_0_fchan_12336 | Completed channel traversal for flit 9.
9 | network_0/network_0_fchan_20488 | Completed channel traversal for flit 10.
9 | network_0/router_level2_2 | Sending flit 3 to channel at output 11.
10 | network_0/network_0_fchan_12307 | Beginning channel traversal for flit 3 with delay 1.
10 | network_0/router_level1_6 | Received flit 9 from channel at input 0.
10 | network_0/router_level1_9 | Received flit 1 from channel at input 0.
10 | network_0/router_level1_24 | Received flit 7 from channel at input 0.
10 | network_0/router_level1_32 | Received flit 2 from channel at input 0.
10 | network_0/router_level1_42 | Received flit 8 from channel at input 0.
10 | network_0/router_level1_44 | Received flit 4 from channel at input 0.
10 | network_0/router_level1_45 | Received flit 6 from channel at input 0.
10 | network_0/router_level1_53 | Received flit 5 from channel at input 0.
10 | network_0/router_level2_0 | Received flit 10 from channel at input 1.
10 | network_0/router_level1_6 | Adding flit 9 to VC 0 at input 0 (state: idle, empty).
10 | network_0/router_level1_6 | Using precomputed lookahead routing information for VC 0 at input 0 (front: 9).
10 | network_0/router_level1_6/buf_0/vc_0 | Changing state from idle to vc_alloc.
10 | network_0/router_level1_6 | Beginning VC allocation for VC 0 at input 0 (front: 9).
10 | network_0/router_level1_6 |   Requesting VC 0 at output 7 (in_pri: 0, out_pri: 0).
10 | network_0/router_level1_6 |   Requesting VC 1 at output 7 (in_pri: 0, out_pri: 0).
10 | network_0/router_level1_6 |   Requesting VC 2 at output 7 (in_pri: 0, out_pri: 0).
10 | network_0/router_level1_6 |   Requesting VC 3 at output 7 (in_pri: 0, out_pri: 0).
10 | network_0/router_level1_6/vc_allocator | Input requests = [ 0 -> [ 28@0 29@0 30@0 31@0 ]  4 -> [ 36@0 37@0 38@0 39@0 ]  8 -> [ 36@0 37@0 38@0 39@0 ]  20 -> [ 36@0 37@0 38@0 39@0 ]  24 -> [ 32@0 33@0 34@0 35@0 ]  ], output requests = [ 28 -> [ 0@0 ]  29 -> [ 0@0 ]  30 -> [ 0@0 ]  31 -> [ 0@0 ]  32 -> [ 24@0 ]  33 -> [ 24@0 ]  34 -> [ 24@0 ]  35 -> [ 24@0 ]  36 -> [ 4@0 8@0 20@0 ]  37 -> [ 4@0 8@0 20@0 ]  38 -> [ 4@0 8@0 20@0 ]  39 -> [ 4@0 8@0 20@0 ]  ].
10 | network_0/router_level1_6/vc_allocator | Input grants = [ 0 -> 28  4 -> 36  24 -> 32  ], output grants = [ 28 -> 0  32 -> 24  36 -> 4  ].
10 | network_0/router_level1_6 | Assigning VC 0 at output 7 to VC 0 at input 0.
10 | network_0/router_level1_6 | Completed VC allocation for VC 0 at input 0 (front: 9).
10 | network_0/router_level1_6 |   Acquiring assigned VC 0 at output 7.
10 | network_0/router_level1_6/buf_0/vc_0 | Changing state from vc_alloc to active.
10 | network_0/router_level1_9 | Adding flit 1 to VC 0 at input 0 (state: idle, empty).
10 | network_0/router_level1_9 | Using precomputed lookahead routing information for VC 0 at input 0 (front: 1).
10 | network_0/router_level1_9/buf_0/vc_0 | Changing state from idle to vc_alloc.
10 | network_0/router_level1_9 | Beginning VC allocation for VC 0 at input 0 (front: 1).
10 | network_0/router_level1_9 |   Requesting VC 0 at output 9 (in_pri: 0, out_pri: 0).
10 | network_0/router_level1_9 |   Requesting VC 1 at output 9 (in_pri: 0, out_pri: 0).
10 | network_0/router_level1_9 |   Requesting VC 2 at output 9 (in_pri: 0, out_pri: 0).
10 | network_0/router_level1_9 |   Requesting VC 3 at output 9 (in_pri: 0, out_pri: 0).
10 | network_0/router_level1_9/vc_allocator | Input requests = [ 0 -> [ 36@0 37@0 38@0 39@0 ]  12 -> [ 36@0 37@0 38@0 39@0 ]  24 -> [ 32@0 33@0 34@0 35@0 ]  ], output requests = [ 32 -> [ 24@0 ]  33 -> [ 24@0 ]  34 -> [ 24@0 ]  35 -> [ 24@0 ]  36 -> [ 0@0 12@0 ]  37 -> [ 0@0 12@0 ]  38 -> [ 0@0 12@0 ]  39 -> [ 0@0 12@0 ]  ].
10 | network_0/router_level1_9/vc_allocator | Input grants = [ 0 -> 36  24 -> 32  ], output grants = [ 32 -> 24  36 -> 0  ].
10 | network_0/router_level1_9 | Assigning VC 0 at output 9 to VC 0 at input 0.
10 | network_0/router_level1_9 | Completed VC allocation for VC 0 at input 0 (front: 1).
10 | network_0/router_level1_9 |   Acquiring assigned VC 0 at output 9.
10 | network_0/router_level1_9/buf_0/vc_0 | Changing state from vc_alloc to active.
10 | network_0/router_level1_24 | Adding flit 7 to VC 0 at input 0 (state: idle, empty).
10 | network_0/router_level1_24 | Using precomputed lookahead routing information for VC 0 at input 0 (front: 7).
10 | network_0/router_level1_24/buf_0/vc_0 | Changing state from idle to vc_alloc.
10 | network_0/router_level1_24 | Beginning VC allocation for VC 0 at input 0 (front: 7).
10 | network_0/router_level1_24 |   Requesting VC 0 at output 9 (in_pri: 0, out_pri: 0).
10 | network_0/router_level1_24 |   Requesting VC 1 at output 9 (in_pri: 0, out_pri: 0).
10 | network_0/router_level1_24 |   Requesting VC 2 at output 9 (in_pri: 0, out_pri: 0).
10 | network_0/router_level1_24 |   Requesting VC 3 at output 9 (in_pri: 0, out_pri: 0).
10 | network_0/router_level1_24/vc_allocator | Input requests = [ 0 -> [ 36@0 37@0 38@0 39@0 ]  16 -> [ 32@0 33@0 34@0 35@0 ]  24 -> [ 36@0 37@0 38@0 39@0 ]  ], output requests = [ 32 -> [ 16@0 ]  33 -> [ 16@0 ]  34 -> [ 16@0 ]  35 -> [ 16@0 ]  36 -> [ 0@0 24@0 ]  37 -> [ 0@0 24@0 ]  38 -> [ 0@0 24@0 ]  39 -> [ 0@0 24@0 ]  ].
10 | network_0/router_level1_24/vc_allocator | Input grants = [ 0 -> 36  16 -> 32  ], output grants = [ 32 -> 16  36 -> 0  ].
10 | network_0/router_level1_24 | Assigning VC 0 at output 9 to VC 0 at input 0.
10 | network_0/router_level1_24 | Completed VC allocation for VC 0 at input 0 (front: 7).
10 | network_0/router_level1_24 |   Acquiring assigned VC 0 at output 9.
10 | network_0/router_level1_24/buf_0/vc_0 | Changing state from vc_alloc to active.
10 | network_0/router_level1_32 | Adding flit 2 to VC 0 at input 0 (state: idle, empty).
10 | network_0/router_level1_32 | Using precomputed lookahead routing information for VC 0 at input 0 (front: 2).
10 | network_0/router_level1_32/buf_0/vc_0 | Changing state from idle to vc_alloc.
10 | network_0/router_level1_32 | Beginning VC allocation for VC 0 at input 0 (front: 2).
10 | network_0/router_level1_32 |   Requesting VC 0 at output 9 (in_pri: 0, out_pri: 0).
10 | network_0/router_level1_32 |   Requesting VC 1 at output 9 (in_pri: 0, out_pri: 0).
10 | network_0/router_level1_32 |   Requesting VC 2 at output 9 (in_pri: 0, out_pri: 0).
10 | network_0/router_level1_32 |   Requesting VC 3 at output 9 (in_pri: 0, out_pri: 0).
10 | network_0/router_level1_32/vc_allocator | Input requests = [ 0 -> [ 36@0 37@0 38@0 39@0 ]  8 -> [ 0@0 1@0 2@0 3@0 ]  16 -> [ 4@0 5@0 6@0 7@0 ]  20 -> [ 32@0 33@0 34@0 35@0 ]  28 -> [ 32@0 33@0 34@0 35@0 ]  ], output requests = [ 0 -> [ 8@0 ]  1 -> [ 8@0 ]  2 -> [ 8@0 ]  3 -> [ 8@0 ]  4 -> [ 16@0 ]  5 -> [ 16@0 ]  6 -> [ 16@0 ]  7 -> [ 16@0 ]  32 -> [ 20@0 28@0 ]  33 -> [ 20@0 28@0 ]  34 -> [ 20@0 28@0 ]  35 -> [ 20@0 28@0 ]  36 -> [ 0@0 ]  37 -> [ 0@0 ]  38 -> [ 0@0 ]  39 -> [ 0@0 ]  ].
10 | network_0/router_level1_32/vc_allocator | Input grants = [ 0 -> 36  8 -> 0  16 -> 4  20 -> 32  ], output grants = [ 0 -> 8  4 -> 16  32 -> 20  36 -> 0  ].
10 | network_0/router_level1_32 | Assigning VC 0 at output 9 to VC 0 at input 0.
10 | network_0/router_level1_32 | Completed VC allocation for VC 0 at input 0 (front: 2).
10 | network_0/router_level1_32 |   Acquiring assigned VC 0 at output 9.
10 | network_0/router_level1_32/buf_0/vc_0 | Changing state from vc_alloc to active.
10 | network_0/router_level1_42 | Adding flit 8 to VC 0 at input 0 (state: idle, empty).
10 | network_0/router_level1_42 | Using precomputed lookahead routing information for VC 0 at input 0 (front: 8).
10 | network_0/router_level1_42/buf_0/vc_0 | Changing state from idle to vc_alloc.
10 | network_0/router_level1_42 | Beginning VC allocation for VC 0 at input 0 (front: 8).
10 | network_0/router_level1_42 |   Requesting VC 0 at output 9 (in_pri: 0, out_pri: 0).
10 | network_0/router_level1_42 |   Requesting VC 1 at output 9 (in_pri: 0, out_pri: 0).
10 | network_0/router_level1_42 |   Requesting VC 2 at output 9 (in_pri: 0, out_pri: 0).
10 | network_0/router_level1_42 |   Requesting VC 3 at output 9 (in_pri: 0, out_pri: 0).
10 | network_0/router_level1_42/vc_allocator | Input requests = [ 0 -> [ 36@0 37@0 38@0 39@0 ]  12 -> [ 16@0 17@0 18@0 19@0 ]  16 -> [ 36@0 37@0 38@0 39@0 ]  24 -> [ 32@0 33@0 34@0 35@0 ]  ], output requests = [ 16 -> [ 12@0 ]  17 -> [ 12@0 ]  18 -> [ 12@0 ]  19 -> [ 12@0 ]  32 -> [ 24@0 ]  33 -> [ 24@0 ]  34 -> [ 24@0 ]  35 -> [ 24@0 ]  36 -> [ 0@0 16@0 ]  37 -> [ 0@0 16@0 ]  38 -> [ 0@0 16@0 ]  39 -> [ 0@0 16@0 ]  ].
10 | network_0/router_level1_42/vc_allocator | Input grants = [ 0 -> 36  12 -> 16  24 -> 32  ], output grants = [ 16 -> 12  32 -> 24  36 -> 0  ].
10 | network_0/router_level1_42 | Assigning VC 0 at output 9 to VC 0 at input 0.
10 | network_0/router_level1_42 | Completed VC allocation for VC 0 at input 0 (front: 8).
10 | network_0/router_level1_42 |   Acquiring assigned VC 0 at output 9.
10 | network_0/router_level1_42/buf_0/vc_0 | Changing state from vc_alloc to active.
10 | network_0/router_level1_44 | Adding flit 4 to VC 0 at input 0 (state: idle, empty).
10 | network_0/router_level1_44 | Using precomputed lookahead routing information for VC 0 at input 0 (front: 4).
10 | network_0/router_level1_44/buf_0/vc_0 | Changing state from idle to vc_alloc.
10 | network_0/router_level1_44 | Beginning VC allocation for VC 0 at input 0 (front: 4).
10 | network_0/router_level1_44 |   Requesting VC 0 at output 8 (in_pri: 0, out_pri: 0).
10 | network_0/router_level1_44 |   Requesting VC 1 at output 8 (in_pri: 0, out_pri: 0).
10 | network_0/router_level1_44 |   Requesting VC 2 at output 8 (in_pri: 0, out_pri: 0).
10 | network_0/router_level1_44 |   Requesting VC 3 at output 8 (in_pri: 0, out_pri: 0).
10 | network_0/router_level1_44/vc_allocator | Input requests = [ 0 -> [ 32@0 33@0 34@0 35@0 ]  4 -> [ 36@0 37@0 38@0 39@0 ]  8 -> [ 4@0 5@0 6@0 7@0 ]  12 -> [ 36@0 37@0 38@0 39@0 ]  ], output requests = [ 4 -> [ 8@0 ]  5 -> [ 8@0 ]  6 -> [ 8@0 ]  7 -> [ 8@0 ]  32 -> [ 0@0 ]  33 -> [ 0@0 ]  34 -> [ 0@0 ]  35 -> [ 0@0 ]  36 -> [ 4@0 12@0 ]  37 -> [ 4@0 12@0 ]  38 -> [ 4@0 12@0 ]  39 -> [ 4@0 12@0 ]  ].
10 | network_0/router_level1_44/vc_allocator | Input grants = [ 0 -> 32  4 -> 36  8 -> 4  ], output grants = [ 4 -> 8  32 -> 0  36 -> 4  ].
10 | network_0/router_level1_44 | Assigning VC 0 at output 8 to VC 0 at input 0.
10 | network_0/router_level1_44 | Completed VC allocation for VC 0 at input 0 (front: 4).
10 | network_0/router_level1_44 |   Acquiring assigned VC 0 at output 8.
10 | network_0/router_level1_44/buf_0/vc_0 | Changing state from vc_alloc to active.
10 | network_0/router_level1_45 | Adding flit 6 to VC 0 at input 0 (state: idle, empty).
10 | network_0/router_level1_45 | Using precomputed lookahead routing information for VC 0 at input 0 (front: 6).
10 | network_0/router_level1_45/buf_0/vc_0 | Changing state from idle to vc_alloc.
10 | network_0/router_level1_45 | Beginning VC allocation for VC 0 at input 0 (front: 6).
10 | network_0/router_level1_45 |   Requesting VC 0 at output 8 (in_pri: 0, out_pri: 0).
10 | network_0/router_level1_45 |   Requesting VC 1 at output 8 (in_pri: 0, out_pri: 0).
10 | network_0/router_level1_45 |   Requesting VC 2 at output 8 (in_pri: 0, out_pri: 0).
10 | network_0/router_level1_45 |   Requesting VC 3 at output 8 (in_pri: 0, out_pri: 0).
10 | network_0/router_level1_45/vc_allocator | Input requests = [ 0 -> [ 32@0 33@0 34@0 35@0 ]  4 -> [ 36@0 37@0 38@0 39@0 ]  12 -> [ 36@0 37@0 38@0 39@0 ]  20 -> [ 36@0 37@0 38@0 39@0 ]  24 -> [ 36@0 37@0 38@0 39@0 ]  ], output requests = [ 32 -> [ 0@0 ]  33 -> [ 0@0 ]  34 -> [ 0@0 ]  35 -> [ 0@0 ]  36 -> [ 4@0 12@0 20@0 24@0 ]  37 -> [ 4@0 12@0 20@0 24@0 ]  38 -> [ 4@0 12@0 20@0 24@0 ]  39 -> [ 4@0 12@0 20@0 24@0 ]  ].
10 | network_0/router_level1_45/vc_allocator | Input grants = [ 0 -> 32  4 -> 36  ], output grants = [ 32 -> 0  36 -> 4  ].
10 | network_0/router_level1_45 | Assigning VC 0 at output 8 to VC 0 at input 0.
10 | network_0/router_level1_45 | Completed VC allocation for VC 0 at input 0 (front: 6).
10 | network_0/router_level1_45 |   Acquiring assigned VC 0 at output 8.
10 | network_0/router_level1_45/buf_0/vc_0 | Changing state from vc_alloc to active.
10 | network_0/router_level1_53 | Adding flit 5 to VC 0 at input 0 (state: idle, empty).
10 | network_0/router_level1_53 | Using precomputed lookahead routing information for VC 0 at input 0 (front: 5).
10 | network_0/router_level1_53/buf_0/vc_0 | Changing state from idle to vc_alloc.
10 | network_0/router_level1_53 | Beginning VC allocation for VC 0 at input 0 (front: 5).
10 | network_0/router_level1_53 |   Requesting VC 0 at output 9 (in_pri: 0, out_pri: 0).
10 | network_0/router_level1_53 |   Requesting VC 1 at output 9 (in_pri: 0, out_pri: 0).
10 | network_0/router_level1_53 |   Requesting VC 2 at output 9 (in_pri: 0, out_pri: 0).
10 | network_0/router_level1_53 |   Requesting VC 3 at output 9 (in_pri: 0, out_pri: 0).
10 | network_0/router_level1_53/vc_allocator | Input requests = [ 0 -> [ 36@0 37@0 38@0 39@0 ]  12 -> [ 32@0 33@0 34@0 35@0 ]  16 -> [ 32@0 33@0 34@0 35@0 ]  24 -> [ 32@0 33@0 34@0 35@0 ]  ], output requests = [ 32 -> [ 12@0 16@0 24@0 ]  33 -> [ 12@0 16@0 24@0 ]  34 -> [ 12@0 16@0 24@0 ]  35 -> [ 12@0 16@0 24@0 ]  36 -> [ 0@0 ]  37 -> [ 0@0 ]  38 -> [ 0@0 ]  39 -> [ 0@0 ]  ].
10 | network_0/router_level1_53/vc_allocator | Input grants = [ 0 -> 36  12 -> 32  ], output grants = [ 32 -> 12  36 -> 0  ].
10 | network_0/router_level1_53 | Assigning VC 0 at output 9 to VC 0 at input 0.
10 | network_0/router_level1_53 | Completed VC allocation for VC 0 at input 0 (front: 5).
10 | network_0/router_level1_53 |   Acquiring assigned VC 0 at output 9.
10 | network_0/router_level1_53/buf_0/vc_0 | Changing state from vc_alloc to active.
10 | network_0/router_level2_0 | Adding flit 10 to VC 0 at input 1 (state: idle, empty).
10 | network_0/router_level2_0 | Using precomputed lookahead routing information for VC 0 at input 1 (front: 10).
10 | network_0/router_level2_0/buf_1/vc_0 | Changing state from idle to vc_alloc.
10 | network_0/router_level2_0 | Beginning VC allocation for VC 0 at input 1 (front: 10).
10 | network_0/router_level2_0 |   VC 0 at output 10 is in use by VC 0 at input 0 (front flit: 9813).
10 | network_0/router_level2_0 |   Requesting VC 1 at output 10 (in_pri: 0, out_pri: 0).
10 | network_0/router_level2_0 |   Requesting VC 2 at output 10 (in_pri: 0, out_pri: 0).
10 | network_0/router_level2_0 |   Requesting VC 3 at output 10 (in_pri: 0, out_pri: 0).
10 | network_0/router_level2_0/vc_allocator | Input requests = [ 1 -> [ 61@0 62@0 63@0 ]  4 -> [ 41@0 42@0 43@0 ]  8 -> [ 41@0 42@0 43@0 ]  9 -> [ 49@0 50@0 51@0 ]  16 -> [ 49@0 50@0 51@0 ]  17 -> [ 41@0 42@0 43@0 ]  20 -> [ 49@0 50@0 51@0 ]  21 -> [ 56@0 57@0 58@0 59@0 ]  24 -> [ 56@0 57@0 58@0 59@0 ]  28 -> [ 32@0 34@0 35@0 ]  29 -> [ 41@0 42@0 43@0 ]  ], output requests = [ 32 -> [ 28@0 ]  34 -> [ 28@0 ]  35 -> [ 28@0 ]  41 -> [ 4@0 8@0 17@0 29@0 ]  42 -> [ 4@0 8@0 17@0 29@0 ]  43 -> [ 4@0 8@0 17@0 29@0 ]  49 -> [ 9@0 16@0 20@0 ]  50 -> [ 9@0 16@0 20@0 ]  51 -> [ 9@0 16@0 20@0 ]  56 -> [ 21@0 24@0 ]  57 -> [ 21@0 24@0 ]  58 -> [ 21@0 24@0 ]  59 -> [ 21@0 24@0 ]  61 -> [ 1@0 ]  62 -> [ 1@0 ]  63 -> [ 1@0 ]  ].
10 | network_0/router_level2_0/vc_allocator | Input grants = [ 1 -> 61  4 -> 41  9 -> 49  21 -> 56  28 -> 32  ], output grants = [ 32 -> 28  41 -> 4  49 -> 9  56 -> 21  61 -> 1  ].
10 | network_0/router_level2_0 | Assigning VC 1 at output 10 to VC 0 at input 1.
10 | network_0/router_level2_0 | Completed VC allocation for VC 0 at input 1 (front: 10).
10 | network_0/router_level2_0 |   Acquiring assigned VC 1 at output 10.
10 | network_0/router_level2_0/buf_1/vc_0 | Changing state from vc_alloc to active.
10 | network_0/network_0_fchan_12307 | Completed channel traversal for flit 3.
11 | network_0/router_level1_26 | Received flit 3 from channel at input 0.
11 | network_0/router_level1_6 | Beginning switch allocation for VC 0 at input 0 (front: 9).
11 | network_0/router_level1_6 |   Requesting output 7.0 (non-spec, pri: 0).
[...]
28 | network_0/router_level3_151/buf_10/vc_1 | Changing state from idle to vc_alloc.
28 | network_0/router_level3_151 | Beginning VC allocation for VC 1 at input 10 (front: 3).
28 | network_0/router_level3_151 |   Requesting VC 0 at output 1 (in_pri: 0, out_pri: 0).
28 | network_0/router_level3_151 |   Requesting VC 1 at output 1 (in_pri: 0, out_pri: 0).
28 | network_0/router_level3_151 |   Requesting VC 2 at output 1 (in_pri: 0, out_pri: 0).
28 | network_0/router_level3_151 |   Requesting VC 3 at output 1 (in_pri: 0, out_pri: 0).
28 | network_0/router_level3_151/vc_allocator | Input requests = [ 0 -> [ 38@0 ]  2 -> [ 53@0 55@0 ]  3 -> [ 38@0 ]  5 -> [ 38@0 ]  10 -> [ 53@0 55@0 ]  13 -> [ 62@0 63@0 ]  17 -> [ 34@0 35@0 ]  24 -> [ 53@0 55@0 ]  28 -> [ 38@0 ]  30 -> [ 38@0 ]  41 -> [ 4@0 5@0 6@0 7@0 ]  57 -> [ 16@0 17@0 18@0 19@0 ]  60 -> [ 16@0 17@0 18@0 19@0 ]  ], output requests = [ 4 -> [ 41@0 ]  5 -> [ 41@0 ]  6 -> [ 41@0 ]  7 -> [ 41@0 ]  16 -> [ 57@0 60@0 ]  17 -> [ 57@0 60@0 ]  18 -> [ 57@0 60@0 ]  19 -> [ 57@0 60@0 ]  34 -> [ 17@0 ]  35 -> [ 17@0 ]  38 -> [ 0@0 3@0 5@0 28@0 30@0 ]  53 -> [ 2@0 10@0 24@0 ]  55 -> [ 2@0 10@0 24@0 ]  62 -> [ 13@0 ]  63 -> [ 13@0 ]  ].
28 | network_0/router_level3_151/vc_allocator | Input grants = [ 3 -> 38  13 -> 62  17 -> 34  24 -> 53  41 -> 4  57 -> 16  ], output grants = [ 4 -> 41  16 -> 57  34 -> 17  38 -> 3  53 -> 24  62 -> 13  ].
28 | network_0/router_level3_151 | Assigning VC 0 at output 1 to VC 1 at input 10.
28 | network_0/router_level3_151 | Completed VC allocation for VC 1 at input 10 (front: 3).
28 | network_0/router_level3_151 |   Acquiring assigned VC 0 at output 1.
28 | network_0/router_level3_151/buf_10/vc_1 | Changing state from vc_alloc to active.
28 | network_0/router_level3_171 | Beginning crossbar traversal for flit 6 from input 13.0 to output 2.0.
28 | network_0/router_level3_171 | Completed crossbar traversal for flit 6 from input 13.0 to output 2.0.
28 | network_0/router_level3_171 | Buffering flit 6 at output 2.
28 | network_0/router_level3_222 | Beginning crossbar traversal for flit 2 from input 8.0 to output 3.0.
28 | network_0/router_level3_222 | Completed crossbar traversal for flit 2 from input 8.0 to output 3.0.
28 | network_0/router_level3_222 | Buffering flit 2 at output 3.
28 | network_0/router_level3_224 | Beginning switch allocation for VC 0 at input 10 (front: 8).
28 | network_0/router_level3_224 |   Requesting output 3.0 (non-spec, pri: 0).
28 | network_0/router_level3_224/sw_allocator | Input requests = [ 0 -> [ 11@0 12@0 ]  1 -> [ 12@0 14@0 ]  2 -> [ 11@0 ]  3 -> [ 13@0 15@0 ]  4 -> [ 8@0 12@0 ]  5 -> [ 10@0 14@0 15@0 ]  6 -> [ 13@0 14@0 15@0 ]  7 -> [ 8@0 11@0 ]  8 -> [ 0@0 ]  10 -> [ 3@0 ]  ], output requests = [ 0 -> [ 8@0 ]  3 -> [ 10@0 ]  8 -> [ 4@0 7@0 ]  10 -> [ 5@0 ]  11 -> [ 0@0 2@0 7@0 ]  12 -> [ 0@0 1@0 4@0 ]  13 -> [ 3@0 6@0 ]  14 -> [ 1@0 5@0 6@0 ]  15 -> [ 3@0 5@0 6@0 ]  ].
28 | network_0/router_level3_224/sw_allocator | Input grants = [ 0 -> 11  3 -> 13  4 -> 12  5 -> 14  7 -> 8  8 -> 0  10 -> 3  ], output grants = [ 0 -> 8  3 -> 10  8 -> 7  11 -> 0  12 -> 4  13 -> 3  14 -> 5  ].
28 | network_0/router_level3_224 | Assigning output 3.0 to VC 0 at input 10.0.
28 | network_0/router_level3_224 | Completed switch allocation for VC 0 at input 10 (front: 8).
28 | network_0/router_level3_224 |   Scheduling switch connection from input 10.0 to output 3.0.
28 | network_0/router_level3_226 | Beginning crossbar traversal for flit 7 from input 8.0 to output 2.0.
28 | network_0/router_level3_226 | Completed crossbar traversal for flit 7 from input 8.0 to output 2.0.
28 | network_0/router_level3_226 | Buffering flit 7 at output 2.
28 | network_0/router_level3_247 | Beginning crossbar traversal for flit 1 from input 9.0 to output 2.0.
28 | network_0/router_level3_247 | Completed crossbar traversal for flit 1 from input 9.0 to output 2.0.
28 | network_0/router_level3_247 | Buffering flit 1 at output 2.
28 | network_0/router_level3_305 | Adding flit 4 to VC 0 at input 12 (state: idle, empty).
28 | network_0/router_level3_305 | Using precomputed lookahead routing information for VC 0 at input 12 (front: 4).
28 | network_0/router_level3_305/buf_12/vc_0 | Changing state from idle to vc_alloc.
28 | network_0/router_level3_305 | Beginning VC allocation for VC 0 at input 12 (front: 4).
28 | network_0/router_level3_305 |   Requesting VC 0 at output 0 (in_pri: 0, out_pri: 0).
28 | network_0/router_level3_305 |   Requesting VC 1 at output 0 (in_pri: 0, out_pri: 0).
28 | network_0/router_level3_305 |   Requesting VC 2 at output 0 (in_pri: 0, out_pri: 0).
28 | network_0/router_level3_305 |   Requesting VC 3 at output 0 (in_pri: 0, out_pri: 0).
28 | network_0/router_level3_305/vc_allocator | Input requests = [ 1 -> [ 59@0 ]  3 -> [ 59@0 ]  11 -> [ 47@0 ]  15 -> [ 47@0 ]  17 -> [ 59@0 ]  18 -> [ 52@0 55@0 ]  20 -> [ 59@0 ]  21 -> [ 48@0 49@0 50@0 51@0 ]  24 -> [ 47@0 ]  25 -> [ 47@0 ]  29 -> [ 47@0 ]  48 -> [ 0@0 1@0 2@0 3@0 ]  60 -> [ 0@0 1@0 2@0 3@0 ]  ], output requests = [ 0 -> [ 48@0 60@0 ]  1 -> [ 48@0 60@0 ]  2 -> [ 48@0 60@0 ]  3 -> [ 48@0 60@0 ]  47 -> [ 11@0 15@0 24@0 25@0 29@0 ]  48 -> [ 21@0 ]  49 -> [ 21@0 ]  50 -> [ 21@0 ]  51 -> [ 21@0 ]  52 -> [ 18@0 ]  55 -> [ 18@0 ]  59 -> [ 1@0 3@0 17@0 20@0 ]  ].
28 | network_0/router_level3_305/vc_allocator | Input grants = [ 15 -> 47  18 -> 52  20 -> 59  21 -> 48  48 -> 0  ], output grants = [ 0 -> 48  47 -> 15  48 -> 21  52 -> 18  59 -> 20  ].
28 | network_0/router_level3_305 | Assigning VC 0 at output 0 to VC 0 at input 12.
28 | network_0/router_level3_305 | Completed VC allocation for VC 0 at input 12 (front: 4).
28 | network_0/router_level3_305 |   Acquiring assigned VC 0 at output 0.
28 | network_0/router_level3_305/buf_12/vc_0 | Changing state from vc_alloc to active.
28 | network_0/router_level3_485 | Beginning crossbar traversal for flit 5 from input 13.0 to output 6.0.
28 | network_0/router_level3_485 | Completed crossbar traversal for flit 5 from input 13.0 to output 6.0.
28 | network_0/router_level3_485 | Buffering flit 5 at output 6.
28 | network_0/router_level3_171 | Sending flit 6 to channel at output 2.
28 | network_0/router_level3_222 | Sending flit 2 to channel at output 3.
28 | network_0/router_level3_226 | Sending flit 7 to channel at output 2.
28 | network_0/router_level3_247 | Sending flit 1 to channel at output 2.
28 | network_0/router_level3_485 | Sending flit 5 to channel at output 6.
29 | network_0/network_0_fchan_egress1370 | Beginning channel traversal for flit 6 with delay 1.
29 | network_0/network_0_fchan_egress1779 | Beginning channel traversal for flit 2 with delay 1.
29 | network_0/network_0_fchan_egress1810 | Beginning channel traversal for flit 7 with delay 1.
29 | network_0/network_0_fchan_egress1978 | Beginning channel traversal for flit 1 with delay 1.
29 | network_0/network_0_fchan_egress3886 | Beginning channel traversal for flit 5 with delay 1.
29 | network_0/router_level2_128 | Beginning switch allocation for VC 0 at input 10 (front: 10).
29 | network_0/router_level2_128 |   Requesting output 1.0 (non-spec, pri: 0).
29 | network_0/router_level2_128/sw_allocator | Input requests = [ 1 -> [ 12@0 14@0 ]  2 -> [ 12@0 ]  3 -> [ 10@0 ]  4 -> [ 11@0 14@0 ]  5 -> [ 9@0 15@0 ]  6 -> [ 13@0 ]  7 -> [ 13@0 15@0 ]  10 -> [ 1@0 ]  14 -> [ 7@0 ]  ], output requests = [ 1 -> [ 10@0 ]  7 -> [ 14@0 ]  9 -> [ 5@0 ]  10 -> [ 3@0 ]  11 -> [ 4@0 ]  12 -> [ 1@0 2@0 ]  13 -> [ 6@0 7@0 ]  14 -> [ 1@0 4@0 ]  15 -> [ 5@0 7@0 ]  ].
29 | network_0/router_level2_128/sw_allocator | Input grants = [ 1 -> 12  3 -> 10  4 -> 11  5 -> 15  7 -> 13  10 -> 1  14 -> 7  ], output grants = [ 1 -> 10  7 -> 14  10 -> 3  11 -> 4  12 -> 1  13 -> 7  15 -> 5  ].
29 | network_0/router_level2_128 | Assigning output 1.0 to VC 0 at input 10.0.
29 | network_0/router_level2_128 | Completed switch allocation for VC 0 at input 10 (front: 10).
29 | network_0/router_level2_128 |   Scheduling switch connection from input 10.0 to output 1.0.
29 | network_0/router_level2_128 | Updating lookahead routing information for flit 10.
29 | network_0/router_level3_151 | Beginning switch allocation for VC 1 at input 10 (front: 3).
29 | network_0/router_level3_151 |   Requesting output 1.0 (non-spec, pri: 0).
29 | network_0/router_level3_151/sw_allocator | Input requests = [ 0 -> [ 9@0 ]  1 -> [ 10@0 11@0 12@0 ]  2 -> [ 8@0 10@0 15@0 ]  3 -> [ 9@0 15@0 ]  4 -> [ 8@0 11@0 13@0 ]  5 -> [ 12@0 14@0 ]  6 -> [ 13@0 ]  7 -> [ 14@0 ]  10 -> [ 1@0 ]  14 -> [ 4@0 ]  ], output requests = [ 1 -> [ 10@0 ]  4 -> [ 14@0 ]  8 -> [ 2@0 4@0 ]  9 -> [ 0@0 3@0 ]  10 -> [ 1@0 2@0 ]  11 -> [ 1@0 4@0 ]  12 -> [ 1@0 5@0 ]  13 -> [ 4@0 6@0 ]  14 -> [ 5@0 7@0 ]  15 -> [ 2@0 3@0 ]  ].
29 | network_0/router_level3_151/sw_allocator | Input grants = [ 0 -> 9  1 -> 10  3 -> 15  4 -> 11  5 -> 14  6 -> 13  10 -> 1  14 -> 4  ], output grants = [ 1 -> 10  4 -> 14  9 -> 0  10 -> 1  11 -> 4  13 -> 6  14 -> 5  15 -> 3  ].
29 | network_0/router_level3_151 | Assigning output 1.0 to VC 1 at input 10.0.
29 | network_0/router_level3_151 | Completed switch allocation for VC 1 at input 10 (front: 3).
29 | network_0/router_level3_151 |   Scheduling switch connection from input 10.0 to output 1.0.
29 | network_0/router_level3_224 | Beginning crossbar traversal for flit 8 from input 10.0 to output 3.0.
29 | network_0/router_level3_224 | Completed crossbar traversal for flit 8 from input 10.0 to output 3.0.
29 | network_0/router_level3_224 | Buffering flit 8 at output 3.
29 | network_0/router_level3_305 | Beginning switch allocation for VC 0 at input 12 (front: 4).
29 | network_0/router_level3_305 |   Requesting output 0.0 (non-spec, pri: 0).
29 | network_0/router_level3_305/sw_allocator | Input requests = [ 0 -> [ 11@0 ]  2 -> [ 10@0 ]  3 -> [ 9@0 11@0 13@0 ]  4 -> [ 11@0 13@0 14@0 ]  5 -> [ 10@0 12@0 14@0 15@0 ]  7 -> [ 10@0 14@0 ]  12 -> [ 0@0 ]  ], output requests = [ 0 -> [ 12@0 ]  9 -> [ 3@0 ]  10 -> [ 2@0 5@0 7@0 ]  11 -> [ 0@0 3@0 4@0 ]  12 -> [ 5@0 ]  13 -> [ 3@0 4@0 ]  14 -> [ 4@0 5@0 7@0 ]  15 -> [ 5@0 ]  ].
29 | network_0/router_level3_305/sw_allocator | Input grants = [ 3 -> 9  4 -> 11  5 -> 14  7 -> 10  12 -> 0  ], output grants = [ 0 -> 12  9 -> 3  10 -> 7  11 -> 4  14 -> 5  ].
29 | network_0/router_level3_305 | Assigning output 0.0 to VC 0 at input 12.0.
29 | network_0/router_level3_305 | Completed switch allocation for VC 0 at input 12 (front: 4).
29 | network_0/router_level3_305 |   Scheduling switch connection from input 12.0 to output 0.0.
29 | network_0/network_0_fchan_egress1370 | Completed channel traversal for flit 6.
29 | network_0/network_0_fchan_egress1779 | Completed channel traversal for flit 2.
29 | network_0/network_0_fchan_egress1810 | Completed channel traversal for flit 7.
29 | network_0/network_0_fchan_egress1978 | Completed channel traversal for flit 1.
29 | network_0/network_0_fchan_egress3886 | Completed channel traversal for flit 5.
29 | network_0/router_level3_224 | Sending flit 8 to channel at output 3.
30 | node1370 | Ejecting flit 6 (packet 6) from VC 0.
30 | node1779 | Ejecting flit 2 (packet 2) from VC 0.
30 | node1810 | Ejecting flit 7 (packet 7) from VC 0.
30 | node1978 | Ejecting flit 1 (packet 1) from VC 0.
30 | node3886 | Ejecting flit 5 (packet 5) from VC 0.
30 | network_0/network_0_fchan_egress1795 | Beginning channel traversal for flit 8 with delay 1.
30 | node1370 | Injecting credit for VC 0 into subnet 0.
30 | node1370 | Retiring flit 6 (packet 6, src = 8, dest = 1370, hops = 7, flat = 30).
30 | node1370 | Retiring packet 6 (plat = 30, nlat = 30, frag = 0, src = 8, dest = 1370).
30 | node1779 | Injecting credit for VC 0 into subnet 0.
30 | node1779 | Retiring flit 2 (packet 2, src = 2, dest = 1779, hops = 7, flat = 30).
30 | node1779 | Retiring packet 2 (plat = 30, nlat = 30, frag = 0, src = 2, dest = 1779).
30 | node1810 | Injecting credit for VC 0 into subnet 0.
30 | node1810 | Retiring flit 7 (packet 7, src = 9, dest = 1810, hops = 7, flat = 30).
30 | node1810 | Retiring packet 7 (plat = 30, nlat = 30, frag = 0, src = 9, dest = 1810).
30 | node1978 | Injecting credit for VC 0 into subnet 0.
30 | node1978 | Retiring flit 1 (packet 1, src = 1, dest = 1978, hops = 7, flat = 30).
30 | node1978 | Retiring packet 1 (plat = 30, nlat = 30, frag = 0, src = 1, dest = 1978).
30 | node3886 | Injecting credit for VC 0 into subnet 0.
30 | node3886 | Retiring flit 5 (packet 5, src = 5, dest = 3886, hops = 7, flat = 30).
30 | node3886 | Retiring packet 5 (plat = 30, nlat = 30, frag = 0, src = 5, dest = 3886).
30 | network_0/router_level2_128 | Beginning crossbar traversal for flit 10 from input 10.0 to output 1.0.
30 | network_0/router_level2_128 | Completed crossbar traversal for flit 10 from input 10.0 to output 1.0.
30 | network_0/router_level2_128 | Buffering flit 10 at output 1.
30 | network_0/router_level3_151 | Beginning crossbar traversal for flit 3 from input 10.0 to output 1.0.
30 | network_0/router_level3_151 | Completed crossbar traversal for flit 3 from input 10.0 to output 1.0.
30 | network_0/router_level3_151 | Buffering flit 3 at output 1.
30 | network_0/router_level3_305 | Beginning crossbar traversal for flit 4 from input 12.0 to output 0.0.
30 | network_0/router_level3_305 | Completed crossbar traversal for flit 4 from input 12.0 to output 0.0.
30 | network_0/router_level3_305 | Buffering flit 4 at output 0.
30 | network_0/network_0_fchan_egress1795 | Completed channel traversal for flit 8.
30 | network_0/router_level2_128 | Sending flit 10 to channel at output 1.
30 | network_0/router_level3_151 | Sending flit 3 to channel at output 1.
30 | network_0/router_level3_305 | Sending flit 4 to channel at output 0.
31 | node1795 | Ejecting flit 8 (packet 8) from VC 0.
31 | network_0/network_0_fchan_egress1209 | Beginning channel traversal for flit 3 with delay 1.
31 | network_0/network_0_fchan_egress2440 | Beginning channel traversal for flit 4 with delay 1.
31 | network_0/network_0_fchan_17409 | Beginning channel traversal for flit 10 with delay 1.
31 | node1795 | Injecting credit for VC 0 into subnet 0.
31 | node1795 | Retiring flit 8 (packet 8, src = 10, dest = 1795, hops = 7, flat = 31).
31 | node1795 | Retiring packet 8 (plat = 31, nlat = 31, frag = 0, src = 10, dest = 1795).
31 | network_0/network_0_fchan_egress1209 | Completed channel traversal for flit 3.
31 | network_0/network_0_fchan_egress2440 | Completed channel traversal for flit 4.
31 | network_0/network_0_fchan_17409 | Completed channel traversal for flit 10.
32 | node1209 | Ejecting flit 3 (packet 3) from VC 0.
32 | node2440 | Ejecting flit 4 (packet 4) from VC 0.
32 | network_0/router_level3_129 | Received flit 10 from channel at input 8.
32 | node1209 | Injecting credit for VC 0 into subnet 0.
32 | node1209 | Retiring flit 3 (packet 3, src = 3, dest = 1209, hops = 7, flat = 32).
32 | node1209 | Retiring packet 3 (plat = 32, nlat = 32, frag = 0, src = 3, dest = 1209).
32 | node2440 | Injecting credit for VC 0 into subnet 0.
32 | node2440 | Retiring flit 4 (packet 4, src = 4, dest = 2440, hops = 7, flat = 32).
32 | node2440 | Retiring packet 4 (plat = 32, nlat = 32, frag = 0, src = 4, dest = 2440).
32 | network_0/router_level3_129 | Adding flit 10 to VC 0 at input 8 (state: idle, empty).
32 | network_0/router_level3_129 | Using precomputed lookahead routing information for VC 0 at input 8 (front: 10).
32 | network_0/router_level3_129/buf_8/vc_0 | Changing state from idle to vc_alloc.
32 | network_0/router_level3_129 | Beginning VC allocation for VC 0 at input 8 (front: 10).
32 | network_0/router_level3_129 |   Requesting VC 0 at output 6 (in_pri: 0, out_pri: 0).
32 | network_0/router_level3_129 |   VC 1 at output 6 is in use by VC 0 at input 12 (front flit: 18114).
32 | network_0/router_level3_129 |   Requesting VC 2 at output 6 (in_pri: 0, out_pri: 0).
32 | network_0/router_level3_129 |   Requesting VC 3 at output 6 (in_pri: 0, out_pri: 0).
32 | network_0/router_level3_129/vc_allocator | Input requests = [ 3 -> [ 60@0 ]  4 -> [ 60@0 ]  6 -> [ 60@0 ]  14 -> [ 50@0 51@0 ]  18 -> [ 32@0 34@0 35@0 ]  21 -> [ 53@0 ]  25 -> [ 45@0 ]  32 -> [ 24@0 26@0 27@0 ]  60 -> [ 5@0 6@0 7@0 ]  ], output requests = [ 5 -> [ 60@0 ]  6 -> [ 60@0 ]  7 -> [ 60@0 ]  24 -> [ 32@0 ]  26 -> [ 32@0 ]  27 -> [ 32@0 ]  32 -> [ 18@0 ]  34 -> [ 18@0 ]  35 -> [ 18@0 ]  45 -> [ 25@0 ]  50 -> [ 14@0 ]  51 -> [ 14@0 ]  53 -> [ 21@0 ]  60 -> [ 3@0 4@0 6@0 ]  ].
32 | network_0/router_level3_129/vc_allocator | Input grants = [ 3 -> 60  14 -> 50  18 -> 32  21 -> 53  25 -> 45  32 -> 24  60 -> 5  ], output grants = [ 5 -> 60  24 -> 32  32 -> 18  45 -> 25  50 -> 14  53 -> 21  60 -> 3  ].
32 | network_0/router_level3_129 | Assigning VC 0 at output 6 to VC 0 at input 8.
32 | network_0/router_level3_129 | Completed VC allocation for VC 0 at input 8 (front: 10).
32 | network_0/router_level3_129 |   Acquiring assigned VC 0 at output 6.
32 | network_0/router_level3_129/buf_8/vc_0 | Changing state from vc_alloc to active.
33 | network_0/router_level3_129 | Beginning switch allocation for VC 0 at input 8 (front: 10).
33 | network_0/router_level3_129 |   Requesting output 6.0 (non-spec, pri: 0).
33 | network_0/router_level3_129/sw_allocator | Input requests = [ 0 -> [ 12@0 13@0 15@0 ]  1 -> [ 10@0 11@0 ]  2 -> [ 13@0 ]  3 -> [ 12@0 14@0 15@0 ]  4 -> [ 8@0 9@0 ]  5 -> [ 13@0 15@0 ]  6 -> [ 10@0 11@0 15@0 ]  7 -> [ 8@0 14@0 ]  8 -> [ 6@0 ]  15 -> [ 1@0 ]  ], output requests = [ 1 -> [ 15@0 ]  6 -> [ 8@0 ]  8 -> [ 4@0 7@0 ]  9 -> [ 4@0 ]  10 -> [ 1@0 6@0 ]  11 -> [ 1@0 6@0 ]  12 -> [ 0@0 3@0 ]  13 -> [ 0@0 2@0 5@0 ]  14 -> [ 3@0 7@0 ]  15 -> [ 0@0 3@0 5@0 6@0 ]  ].
33 | network_0/router_level3_129/sw_allocator | Input grants = [ 0 -> 12  1 -> 11  4 -> 8  5 -> 13  6 -> 10  7 -> 14  8 -> 6  15 -> 1  ], output grants = [ 1 -> 15  6 -> 8  8 -> 4  10 -> 6  11 -> 1  12 -> 0  13 -> 5  14 -> 7  ].
33 | network_0/router_level3_129 | Assigning output 6.0 to VC 0 at input 8.0.
33 | network_0/router_level3_129 | Completed switch allocation for VC 0 at input 8 (front: 10).
33 | network_0/router_level3_129 |   Scheduling switch connection from input 8.0 to output 6.0.
34 | network_0/router_level3_129 | Beginning crossbar traversal for flit 10 from input 8.0 to output 6.0.
34 | network_0/router_level3_129 | Completed crossbar traversal for flit 10 from input 8.0 to output 6.0.
34 | network_0/router_level3_129 | Buffering flit 10 at output 6.
34 | network_0/router_level3_129 | Sending flit 10 to channel at output 6.
35 | network_0/network_0_fchan_egress1038 | Beginning channel traversal for flit 10 with delay 1.
35 | network_0/network_0_fchan_egress1038 | Completed channel traversal for flit 10.
36 | node1038 | Ejecting flit 10 (packet 10) from VC 0.
36 | node1038 | Injecting credit for VC 0 into subnet 0.
36 | node1038 | Retiring flit 10 (packet 10, src = 12, dest = 1038, hops = 7, flat = 36).
36 | node1038 | Retiring packet 10 (plat = 36, nlat = 36, frag = 0, src = 12, dest = 1038).
Class 0:
Packet latency average = 381.199
	minimum = 6
	maximum = 907
Network latency average = 380.094
	minimum = 6
	maximum = 907
Slowest packet = 295131
Flit latency average = 380.094
	minimum = 6
	maximum = 907
Slowest flit = 295131
Fragmentation average = 0
	minimum = 0
	maximum = 0
Injected packet rate average = 0.369721
	minimum = 0.286 (at node 3614)
	maximum = 0.455 (at node 549)
Accepted packet rate average = 0.193222
	minimum = 0.147 (at node 260)
	maximum = 0.242 (at node 2246)
Injected flit rate average = 0.369721
	minimum = 0.286 (at node 3614)
	maximum = 0.455 (at node 549)
Accepted flit rate average= 0.193222
	minimum = 0.147 (at node 260)
	maximum = 0.242 (at node 2246)
Injected packet length average = 1
Accepted packet length average = 1
Total in-flight flits = 726259 (0 measured)
latency change    = 1
throughput change = 1
Average latency for class 0 exceeded 500 cycles. Aborting simulation.
Too many sample periods needed to converge
Simulation unstable, ending ...
Total run time 131.376
