BEGIN Configuration File: examples/fattree_config_1.00_2_uniform
// $Id: dragonflyconfig 3555 2011-05-16 23:37:55Z dub $

// Copyright (c) 2007-2015, Trustees of The Leland Stanford Junior University
// All rights reserved.
//
// Redistribution and use in source and binary forms, with or without
// modification, are permitted provided that the following conditions are met:
//
// Redistributions of source code must retain the above copyright notice, this
// list of conditions and the following disclaimer.
// Redistributions in binary form must reproduce the above copyright notice,
// this list of conditions and the following disclaimer in the documentation
// and/or other materials provided with the distribution.
//
// THIS SOFTWARE IS PROVIDED BY THE COPYRIGHT HOLDERS AND CONTRIBUTORS "AS IS"
// AND ANY EXPRESS OR IMPLIED WARRANTIES, INCLUDING, BUT NOT LIMITED TO, THE
// IMPLIED WARRANTIES OF MERCHANTABILITY AND FITNESS FOR A PARTICULAR PURPOSE
// ARE DISCLAIMED. IN NO EVENT SHALL THE COPYRIGHT OWNER OR CONTRIBUTORS BE
// LIABLE FOR ANY DIRECT, INDIRECT, INCIDENTAL, SPECIAL, EXEMPLARY, OR
// CONSEQUENTIAL DAMAGES (INCLUDING, BUT NOT LIMITED TO, PROCUREMENT OF
// SUBSTITUTE GOODS OR SERVICES; LOSS OF USE, DATA, OR PROFITS; OR BUSINESS
// INTERRUPTION) HOWEVER CAUSED AND ON ANY THEORY OF LIABILITY, WHETHER IN
// CONTRACT, STRICT LIABILITY, OR TORT (INCLUDING NEGLIGENCE OR OTHERWISE)
// ARISING IN ANY WAY OUT OF THE USE OF THIS SOFTWARE, EVEN IF ADVISED OF THE
// POSSIBILITY OF SUCH DAMAGE.


hold_switch_for_packet=1;

vc_buf_size = 16;


wait_for_tail_credit = 0;

//
// Router architecture
//
vc_allocator = separable_input_first; 
sw_allocator = separable_input_first;
alloc_iters  = 1;

credit_delay   = 2;
routing_delay  = 0;
vc_alloc_delay = 1;
sw_alloc_delay = 1;
st_final_delay = 1;

input_speedup     = 1;
output_speedup    = 1;
internal_speedup  = 1.0;


warmup_periods = 3;
sim_count          = 1;

sample_period  = 1000;  

routing_function = nca;
num_vcs     = 4;

priority = none;
traffic = uniform;


injection_rate = 1.00;
packet_size = 1;
injection_rate_uses_flits=1;

topology = fattree;

k  = 8;
n  = 4;
t = 2;

watch_file = watchfile.txt;
watch_out=-;
stats_out = examples/fattree_config_1.00_2_uniform.m;

END Configuration File: examples/fattree_config_1.00_2_uniform
Fat Tree
 k = 8 levels = 4
 each switch - total radix =  16
 # of switches = 2048
 # of channels = 24576
 # of nodes ( size of network ) = 4096
 tapering factor = 2
0 | node1 | Enqueuing flit 1 (packet 1) at time 0.
0 | node2 | Enqueuing flit 2 (packet 2) at time 0.
0 | node3 | Enqueuing flit 3 (packet 3) at time 0.
0 | node4 | Enqueuing flit 4 (packet 4) at time 0.
0 | node5 | Enqueuing flit 5 (packet 5) at time 0.
0 | node6 | Enqueuing flit 6 (packet 6) at time 0.
0 | node7 | Enqueuing flit 7 (packet 7) at time 0.
0 | node8 | Enqueuing flit 8 (packet 8) at time 0.
0 | node9 | Enqueuing flit 9 (packet 9) at time 0.
0 | node10 | Enqueuing flit 10 (packet 10) at time 0.
0 | traffic_manager | Finding output VC for flit 1:
0 | traffic_manager |   Selected output VC 0.
0 | node1 | Generating lookahead routing info for flit 1.
0 | node1 | Injecting flit 1 into subnet 0 at time 0 with priority 0.
0 | traffic_manager | Finding output VC for flit 2:
0 | traffic_manager |   Selected output VC 0.
0 | node2 | Generating lookahead routing info for flit 2.
0 | node2 | Injecting flit 2 into subnet 0 at time 0 with priority 0.
0 | traffic_manager | Finding output VC for flit 3:
0 | traffic_manager |   Selected output VC 0.
0 | node3 | Generating lookahead routing info for flit 3.
0 | node3 | Injecting flit 3 into subnet 0 at time 0 with priority 0.
0 | traffic_manager | Finding output VC for flit 4:
0 | traffic_manager |   Selected output VC 0.
0 | node4 | Generating lookahead routing info for flit 4.
0 | node4 | Injecting flit 4 into subnet 0 at time 0 with priority 0.
0 | traffic_manager | Finding output VC for flit 5:
0 | traffic_manager |   Selected output VC 0.
0 | node5 | Generating lookahead routing info for flit 5.
0 | node5 | Injecting flit 5 into subnet 0 at time 0 with priority 0.
0 | traffic_manager | Finding output VC for flit 6:
0 | traffic_manager |   Selected output VC 0.
0 | node6 | Generating lookahead routing info for flit 6.
0 | node6 | Injecting flit 6 into subnet 0 at time 0 with priority 0.
0 | traffic_manager | Finding output VC for flit 7:
0 | traffic_manager |   Selected output VC 0.
0 | node7 | Generating lookahead routing info for flit 7.
0 | node7 | Injecting flit 7 into subnet 0 at time 0 with priority 0.
0 | traffic_manager | Finding output VC for flit 8:
0 | traffic_manager |   Selected output VC 0.
0 | node8 | Generating lookahead routing info for flit 8.
0 | node8 | Injecting flit 8 into subnet 0 at time 0 with priority 0.
0 | traffic_manager | Finding output VC for flit 9:
0 | traffic_manager |   Selected output VC 0.
0 | node9 | Generating lookahead routing info for flit 9.
0 | node9 | Injecting flit 9 into subnet 0 at time 0 with priority 0.
0 | traffic_manager | Finding output VC for flit 10:
0 | traffic_manager |   Selected output VC 0.
0 | node10 | Generating lookahead routing info for flit 10.
0 | node10 | Injecting flit 10 into subnet 0 at time 0 with priority 0.
1 | network_0/network_0_fchan_ingress1 | Beginning channel traversal for flit 1 with delay 1.
1 | network_0/network_0_fchan_ingress2 | Beginning channel traversal for flit 2 with delay 1.
1 | network_0/network_0_fchan_ingress3 | Beginning channel traversal for flit 3 with delay 1.
1 | network_0/network_0_fchan_ingress4 | Beginning channel traversal for flit 4 with delay 1.
1 | network_0/network_0_fchan_ingress5 | Beginning channel traversal for flit 5 with delay 1.
1 | network_0/network_0_fchan_ingress6 | Beginning channel traversal for flit 6 with delay 1.
1 | network_0/network_0_fchan_ingress7 | Beginning channel traversal for flit 7 with delay 1.
1 | network_0/network_0_fchan_ingress8 | Beginning channel traversal for flit 8 with delay 1.
1 | network_0/network_0_fchan_ingress9 | Beginning channel traversal for flit 9 with delay 1.
1 | network_0/network_0_fchan_ingress10 | Beginning channel traversal for flit 10 with delay 1.
1 | network_0/network_0_fchan_ingress1 | Completed channel traversal for flit 1.
1 | network_0/network_0_fchan_ingress2 | Completed channel traversal for flit 2.
1 | network_0/network_0_fchan_ingress3 | Completed channel traversal for flit 3.
1 | network_0/network_0_fchan_ingress4 | Completed channel traversal for flit 4.
1 | network_0/network_0_fchan_ingress5 | Completed channel traversal for flit 5.
1 | network_0/network_0_fchan_ingress6 | Completed channel traversal for flit 6.
1 | network_0/network_0_fchan_ingress7 | Completed channel traversal for flit 7.
1 | network_0/network_0_fchan_ingress8 | Completed channel traversal for flit 8.
1 | network_0/network_0_fchan_ingress9 | Completed channel traversal for flit 9.
1 | network_0/network_0_fchan_ingress10 | Completed channel traversal for flit 10.
2 | network_0/router_level3_0 | Received flit 1 from channel at input 1.
2 | network_0/router_level3_0 | Received flit 2 from channel at input 2.
2 | network_0/router_level3_0 | Received flit 3 from channel at input 3.
2 | network_0/router_level3_0 | Received flit 4 from channel at input 4.
2 | network_0/router_level3_0 | Received flit 5 from channel at input 5.
2 | network_0/router_level3_0 | Received flit 6 from channel at input 6.
2 | network_0/router_level3_0 | Received flit 7 from channel at input 7.
2 | network_0/router_level3_1 | Received flit 8 from channel at input 0.
2 | network_0/router_level3_1 | Received flit 9 from channel at input 1.
2 | network_0/router_level3_1 | Received flit 10 from channel at input 2.
2 | network_0/router_level3_0 | Adding flit 1 to VC 0 at input 1 (state: idle, empty).
2 | network_0/router_level3_0 | Using precomputed lookahead routing information for VC 0 at input 1 (front: 1).
2 | network_0/router_level3_0/buf_1/vc_0 | Changing state from idle to vc_alloc.
2 | network_0/router_level3_0 | Adding flit 2 to VC 0 at input 2 (state: idle, empty).
2 | network_0/router_level3_0 | Using precomputed lookahead routing information for VC 0 at input 2 (front: 2).
2 | network_0/router_level3_0/buf_2/vc_0 | Changing state from idle to vc_alloc.
2 | network_0/router_level3_0 | Adding flit 3 to VC 0 at input 3 (state: idle, empty).
2 | network_0/router_level3_0 | Using precomputed lookahead routing information for VC 0 at input 3 (front: 3).
2 | network_0/router_level3_0/buf_3/vc_0 | Changing state from idle to vc_alloc.
2 | network_0/router_level3_0 | Adding flit 4 to VC 0 at input 4 (state: idle, empty).
2 | network_0/router_level3_0 | Using precomputed lookahead routing information for VC 0 at input 4 (front: 4).
2 | network_0/router_level3_0/buf_4/vc_0 | Changing state from idle to vc_alloc.
2 | network_0/router_level3_0 | Adding flit 5 to VC 0 at input 5 (state: idle, empty).
2 | network_0/router_level3_0 | Using precomputed lookahead routing information for VC 0 at input 5 (front: 5).
2 | network_0/router_level3_0/buf_5/vc_0 | Changing state from idle to vc_alloc.
2 | network_0/router_level3_0 | Adding flit 6 to VC 0 at input 6 (state: idle, empty).
2 | network_0/router_level3_0 | Using precomputed lookahead routing information for VC 0 at input 6 (front: 6).
2 | network_0/router_level3_0/buf_6/vc_0 | Changing state from idle to vc_alloc.
2 | network_0/router_level3_0 | Adding flit 7 to VC 0 at input 7 (state: idle, empty).
2 | network_0/router_level3_0 | Using precomputed lookahead routing information for VC 0 at input 7 (front: 7).
2 | network_0/router_level3_0/buf_7/vc_0 | Changing state from idle to vc_alloc.
2 | network_0/router_level3_0 | Beginning VC allocation for VC 0 at input 1 (front: 1).
2 | network_0/router_level3_0 |   Requesting VC 0 at output 13 (in_pri: 0, out_pri: 0).
2 | network_0/router_level3_0 |   Requesting VC 1 at output 13 (in_pri: 0, out_pri: 0).
2 | network_0/router_level3_0 |   Requesting VC 2 at output 13 (in_pri: 0, out_pri: 0).
2 | network_0/router_level3_0 |   Requesting VC 3 at output 13 (in_pri: 0, out_pri: 0).
2 | network_0/router_level3_0 | Beginning VC allocation for VC 0 at input 2 (front: 2).
2 | network_0/router_level3_0 |   Requesting VC 0 at output 14 (in_pri: 0, out_pri: 0).
2 | network_0/router_level3_0 |   Requesting VC 1 at output 14 (in_pri: 0, out_pri: 0).
2 | network_0/router_level3_0 |   Requesting VC 2 at output 14 (in_pri: 0, out_pri: 0).
2 | network_0/router_level3_0 |   Requesting VC 3 at output 14 (in_pri: 0, out_pri: 0).
2 | network_0/router_level3_0 | Beginning VC allocation for VC 0 at input 3 (front: 3).
2 | network_0/router_level3_0 |   Requesting VC 0 at output 11 (in_pri: 0, out_pri: 0).
2 | network_0/router_level3_0 |   Requesting VC 1 at output 11 (in_pri: 0, out_pri: 0).
2 | network_0/router_level3_0 |   Requesting VC 2 at output 11 (in_pri: 0, out_pri: 0).
2 | network_0/router_level3_0 |   Requesting VC 3 at output 11 (in_pri: 0, out_pri: 0).
2 | network_0/router_level3_0 | Beginning VC allocation for VC 0 at input 4 (front: 4).
2 | network_0/router_level3_0 |   Requesting VC 0 at output 14 (in_pri: 0, out_pri: 0).
2 | network_0/router_level3_0 |   Requesting VC 1 at output 14 (in_pri: 0, out_pri: 0).
2 | network_0/router_level3_0 |   Requesting VC 2 at output 14 (in_pri: 0, out_pri: 0).
2 | network_0/router_level3_0 |   Requesting VC 3 at output 14 (in_pri: 0, out_pri: 0).
2 | network_0/router_level3_0 | Beginning VC allocation for VC 0 at input 5 (front: 5).
2 | network_0/router_level3_0 |   Requesting VC 0 at output 15 (in_pri: 0, out_pri: 0).
2 | network_0/router_level3_0 |   Requesting VC 1 at output 15 (in_pri: 0, out_pri: 0).
2 | network_0/router_level3_0 |   Requesting VC 2 at output 15 (in_pri: 0, out_pri: 0).
2 | network_0/router_level3_0 |   Requesting VC 3 at output 15 (in_pri: 0, out_pri: 0).
2 | network_0/router_level3_0 | Beginning VC allocation for VC 0 at input 6 (front: 6).
2 | network_0/router_level3_0 |   Requesting VC 0 at output 11 (in_pri: 0, out_pri: 0).
2 | network_0/router_level3_0 |   Requesting VC 1 at output 11 (in_pri: 0, out_pri: 0).
2 | network_0/router_level3_0 |   Requesting VC 2 at output 11 (in_pri: 0, out_pri: 0).
2 | network_0/router_level3_0 |   Requesting VC 3 at output 11 (in_pri: 0, out_pri: 0).
2 | network_0/router_level3_0 | Beginning VC allocation for VC 0 at input 7 (front: 7).
2 | network_0/router_level3_0 |   Requesting VC 0 at output 10 (in_pri: 0, out_pri: 0).
2 | network_0/router_level3_0 |   Requesting VC 1 at output 10 (in_pri: 0, out_pri: 0).
2 | network_0/router_level3_0 |   Requesting VC 2 at output 10 (in_pri: 0, out_pri: 0).
2 | network_0/router_level3_0 |   Requesting VC 3 at output 10 (in_pri: 0, out_pri: 0).
2 | network_0/router_level3_0/vc_allocator | Input requests = [ 0 -> [ 36@0 37@0 38@0 39@0 ]  4 -> [ 52@0 53@0 54@0 55@0 ]  8 -> [ 56@0 57@0 58@0 59@0 ]  12 -> [ 44@0 45@0 46@0 47@0 ]  16 -> [ 56@0 57@0 58@0 59@0 ]  20 -> [ 60@0 61@0 62@0 63@0 ]  24 -> [ 44@0 45@0 46@0 47@0 ]  28 -> [ 40@0 41@0 42@0 43@0 ]  ], output requests = [ 36 -> [ 0@0 ]  37 -> [ 0@0 ]  38 -> [ 0@0 ]  39 -> [ 0@0 ]  40 -> [ 28@0 ]  41 -> [ 28@0 ]  42 -> [ 28@0 ]  43 -> [ 28@0 ]  44 -> [ 12@0 24@0 ]  45 -> [ 12@0 24@0 ]  46 -> [ 12@0 24@0 ]  47 -> [ 12@0 24@0 ]  52 -> [ 4@0 ]  53 -> [ 4@0 ]  54 -> [ 4@0 ]  55 -> [ 4@0 ]  56 -> [ 8@0 16@0 ]  57 -> [ 8@0 16@0 ]  58 -> [ 8@0 16@0 ]  59 -> [ 8@0 16@0 ]  60 -> [ 20@0 ]  61 -> [ 20@0 ]  62 -> [ 20@0 ]  63 -> [ 20@0 ]  ].
2 | network_0/router_level3_0/vc_allocator | Input grants = [ 0 -> 36  4 -> 52  8 -> 56  12 -> 44  20 -> 60  28 -> 40  ], output grants = [ 36 -> 0  40 -> 28  44 -> 12  52 -> 4  56 -> 8  60 -> 20  ].
2 | network_0/router_level3_0 | Assigning VC 0 at output 13 to VC 0 at input 1.
2 | network_0/router_level3_0 | Assigning VC 0 at output 14 to VC 0 at input 2.
2 | network_0/router_level3_0 | Assigning VC 0 at output 11 to VC 0 at input 3.
2 | network_0/router_level3_0 | VC allocation failed for VC 0 at input 4.
2 | network_0/router_level3_0 | Assigning VC 0 at output 15 to VC 0 at input 5.
2 | network_0/router_level3_0 | VC allocation failed for VC 0 at input 6.
2 | network_0/router_level3_0 | Assigning VC 0 at output 10 to VC 0 at input 7.
2 | network_0/router_level3_0 | Completed VC allocation for VC 0 at input 1 (front: 1).
2 | network_0/router_level3_0 |   Acquiring assigned VC 0 at output 13.
2 | network_0/router_level3_0/buf_1/vc_0 | Changing state from vc_alloc to active.
2 | network_0/router_level3_0 | Completed VC allocation for VC 0 at input 2 (front: 2).
2 | network_0/router_level3_0 |   Acquiring assigned VC 0 at output 14.
2 | network_0/router_level3_0/buf_2/vc_0 | Changing state from vc_alloc to active.
2 | network_0/router_level3_0 | Completed VC allocation for VC 0 at input 3 (front: 3).
2 | network_0/router_level3_0 |   Acquiring assigned VC 0 at output 11.
2 | network_0/router_level3_0/buf_3/vc_0 | Changing state from vc_alloc to active.
2 | network_0/router_level3_0 | Completed VC allocation for VC 0 at input 4 (front: 4).
2 | network_0/router_level3_0 |   No output VC allocated.
2 | network_0/router_level3_0 | Completed VC allocation for VC 0 at input 5 (front: 5).
2 | network_0/router_level3_0 |   Acquiring assigned VC 0 at output 15.
2 | network_0/router_level3_0/buf_5/vc_0 | Changing state from vc_alloc to active.
2 | network_0/router_level3_0 | Completed VC allocation for VC 0 at input 6 (front: 6).
2 | network_0/router_level3_0 |   No output VC allocated.
2 | network_0/router_level3_0 | Completed VC allocation for VC 0 at input 7 (front: 7).
2 | network_0/router_level3_0 |   Acquiring assigned VC 0 at output 10.
2 | network_0/router_level3_0/buf_7/vc_0 | Changing state from vc_alloc to active.
2 | network_0/router_level3_1 | Adding flit 8 to VC 0 at input 0 (state: idle, empty).
2 | network_0/router_level3_1 | Using precomputed lookahead routing information for VC 0 at input 0 (front: 8).
2 | network_0/router_level3_1/buf_0/vc_0 | Changing state from idle to vc_alloc.
2 | network_0/router_level3_1 | Adding flit 9 to VC 0 at input 1 (state: idle, empty).
2 | network_0/router_level3_1 | Using precomputed lookahead routing information for VC 0 at input 1 (front: 9).
2 | network_0/router_level3_1/buf_1/vc_0 | Changing state from idle to vc_alloc.
2 | network_0/router_level3_1 | Adding flit 10 to VC 0 at input 2 (state: idle, empty).
2 | network_0/router_level3_1 | Using precomputed lookahead routing information for VC 0 at input 2 (front: 10).
2 | network_0/router_level3_1/buf_2/vc_0 | Changing state from idle to vc_alloc.
2 | network_0/router_level3_1 | Beginning VC allocation for VC 0 at input 0 (front: 8).
2 | network_0/router_level3_1 |   Requesting VC 0 at output 10 (in_pri: 0, out_pri: 0).
2 | network_0/router_level3_1 |   Requesting VC 1 at output 10 (in_pri: 0, out_pri: 0).
2 | network_0/router_level3_1 |   Requesting VC 2 at output 10 (in_pri: 0, out_pri: 0).
2 | network_0/router_level3_1 |   Requesting VC 3 at output 10 (in_pri: 0, out_pri: 0).
2 | network_0/router_level3_1 | Beginning VC allocation for VC 0 at input 1 (front: 9).
2 | network_0/router_level3_1 |   Requesting VC 0 at output 9 (in_pri: 0, out_pri: 0).
2 | network_0/router_level3_1 |   Requesting VC 1 at output 9 (in_pri: 0, out_pri: 0).
2 | network_0/router_level3_1 |   Requesting VC 2 at output 9 (in_pri: 0, out_pri: 0).
2 | network_0/router_level3_1 |   Requesting VC 3 at output 9 (in_pri: 0, out_pri: 0).
2 | network_0/router_level3_1 | Beginning VC allocation for VC 0 at input 2 (front: 10).
2 | network_0/router_level3_1 |   Requesting VC 0 at output 9 (in_pri: 0, out_pri: 0).
2 | network_0/router_level3_1 |   Requesting VC 1 at output 9 (in_pri: 0, out_pri: 0).
2 | network_0/router_level3_1 |   Requesting VC 2 at output 9 (in_pri: 0, out_pri: 0).
2 | network_0/router_level3_1 |   Requesting VC 3 at output 9 (in_pri: 0, out_pri: 0).
2 | network_0/router_level3_1/vc_allocator | Input requests = [ 0 -> [ 40@0 41@0 42@0 43@0 ]  4 -> [ 36@0 37@0 38@0 39@0 ]  8 -> [ 36@0 37@0 38@0 39@0 ]  12 -> [ 44@0 45@0 46@0 47@0 ]  16 -> [ 52@0 53@0 54@0 55@0 ]  20 -> [ 60@0 61@0 62@0 63@0 ]  24 -> [ 60@0 61@0 62@0 63@0 ]  28 -> [ 60@0 61@0 62@0 63@0 ]  ], output requests = [ 36 -> [ 4@0 8@0 ]  37 -> [ 4@0 8@0 ]  38 -> [ 4@0 8@0 ]  39 -> [ 4@0 8@0 ]  40 -> [ 0@0 ]  41 -> [ 0@0 ]  42 -> [ 0@0 ]  43 -> [ 0@0 ]  44 -> [ 12@0 ]  45 -> [ 12@0 ]  46 -> [ 12@0 ]  47 -> [ 12@0 ]  52 -> [ 16@0 ]  53 -> [ 16@0 ]  54 -> [ 16@0 ]  55 -> [ 16@0 ]  60 -> [ 20@0 24@0 28@0 ]  61 -> [ 20@0 24@0 28@0 ]  62 -> [ 20@0 24@0 28@0 ]  63 -> [ 20@0 24@0 28@0 ]  ].
2 | network_0/router_level3_1/vc_allocator | Input grants = [ 0 -> 40  4 -> 36  12 -> 44  16 -> 52  20 -> 60  ], output grants = [ 36 -> 4  40 -> 0  44 -> 12  52 -> 16  60 -> 20  ].
2 | network_0/router_level3_1 | Assigning VC 0 at output 10 to VC 0 at input 0.
2 | network_0/router_level3_1 | Assigning VC 0 at output 9 to VC 0 at input 1.
2 | network_0/router_level3_1 | VC allocation failed for VC 0 at input 2.
2 | network_0/router_level3_1 | Completed VC allocation for VC 0 at input 0 (front: 8).
2 | network_0/router_level3_1 |   Acquiring assigned VC 0 at output 10.
2 | network_0/router_level3_1/buf_0/vc_0 | Changing state from vc_alloc to active.
2 | network_0/router_level3_1 | Completed VC allocation for VC 0 at input 1 (front: 9).
2 | network_0/router_level3_1 |   Acquiring assigned VC 0 at output 9.
2 | network_0/router_level3_1/buf_1/vc_0 | Changing state from vc_alloc to active.
2 | network_0/router_level3_1 | Completed VC allocation for VC 0 at input 2 (front: 10).
2 | network_0/router_level3_1 |   No output VC allocated.
3 | network_0/router_level3_0 | Beginning VC allocation for VC 0 at input 4 (front: 4).
3 | network_0/router_level3_0 |   VC 0 at output 14 is in use by VC 0 at input 2 (front flit: 2).
3 | network_0/router_level3_0 |   Requesting VC 1 at output 14 (in_pri: 0, out_pri: 0).
3 | network_0/router_level3_0 |   Requesting VC 2 at output 14 (in_pri: 0, out_pri: 0).
3 | network_0/router_level3_0 |   Requesting VC 3 at output 14 (in_pri: 0, out_pri: 0).
3 | network_0/router_level3_0 | Beginning VC allocation for VC 0 at input 6 (front: 6).
3 | network_0/router_level3_0 |   VC 0 at output 11 is in use by VC 0 at input 3 (front flit: 3).
3 | network_0/router_level3_0 |   Requesting VC 1 at output 11 (in_pri: 0, out_pri: 0).
3 | network_0/router_level3_0 |   Requesting VC 2 at output 11 (in_pri: 0, out_pri: 0).
3 | network_0/router_level3_0 |   Requesting VC 3 at output 11 (in_pri: 0, out_pri: 0).
3 | network_0/router_level3_0/vc_allocator | Input requests = [ 1 -> [ 48@0 49@0 50@0 51@0 ]  5 -> [ 57@0 58@0 59@0 ]  9 -> [ 48@0 49@0 50@0 51@0 ]  13 -> [ 61@0 62@0 63@0 ]  16 -> [ 57@0 58@0 59@0 ]  17 -> [ 32@0 33@0 34@0 35@0 ]  21 -> [ 48@0 49@0 50@0 51@0 ]  24 -> [ 45@0 46@0 47@0 ]  25 -> [ 37@0 38@0 39@0 ]  29 -> [ 45@0 46@0 47@0 ]  ], output requests = [ 32 -> [ 17@0 ]  33 -> [ 17@0 ]  34 -> [ 17@0 ]  35 -> [ 17@0 ]  37 -> [ 25@0 ]  38 -> [ 25@0 ]  39 -> [ 25@0 ]  45 -> [ 24@0 29@0 ]  46 -> [ 24@0 29@0 ]  47 -> [ 24@0 29@0 ]  48 -> [ 1@0 9@0 21@0 ]  49 -> [ 1@0 9@0 21@0 ]  50 -> [ 1@0 9@0 21@0 ]  51 -> [ 1@0 9@0 21@0 ]  57 -> [ 5@0 16@0 ]  58 -> [ 5@0 16@0 ]  59 -> [ 5@0 16@0 ]  61 -> [ 13@0 ]  62 -> [ 13@0 ]  63 -> [ 13@0 ]  ].
3 | network_0/router_level3_0/vc_allocator | Input grants = [ 1 -> 48  5 -> 57  13 -> 61  17 -> 32  24 -> 45  25 -> 37  ], output grants = [ 32 -> 17  37 -> 25  45 -> 24  48 -> 1  57 -> 5  61 -> 13  ].
3 | network_0/router_level3_0 | VC allocation failed for VC 0 at input 4.
3 | network_0/router_level3_0 | Assigning VC 1 at output 11 to VC 0 at input 6.
3 | network_0/router_level3_0 | Beginning switch allocation for VC 0 at input 1 (front: 1).
3 | network_0/router_level3_0 |   Requesting output 13.0 (non-spec, pri: 0).
3 | network_0/router_level3_0 | Beginning switch allocation for VC 0 at input 2 (front: 2).
3 | network_0/router_level3_0 |   Requesting output 14.0 (non-spec, pri: 0).
3 | network_0/router_level3_0 | Beginning switch allocation for VC 0 at input 3 (front: 3).
3 | network_0/router_level3_0 |   Requesting output 11.0 (non-spec, pri: 0).
3 | network_0/router_level3_0 | Beginning switch allocation for VC 0 at input 5 (front: 5).
3 | network_0/router_level3_0 |   Requesting output 15.0 (non-spec, pri: 0).
3 | network_0/router_level3_0 | Beginning switch allocation for VC 0 at input 7 (front: 7).
3 | network_0/router_level3_0 |   Requesting output 10.0 (non-spec, pri: 0).
3 | network_0/router_level3_0/sw_allocator | Input requests = [ 0 -> [ 9@0 ]  1 -> [ 13@0 ]  2 -> [ 14@0 ]  3 -> [ 11@0 ]  5 -> [ 15@0 ]  7 -> [ 10@0 ]  ], output requests = [ 9 -> [ 0@0 ]  10 -> [ 7@0 ]  11 -> [ 3@0 ]  13 -> [ 1@0 ]  14 -> [ 2@0 ]  15 -> [ 5@0 ]  ].
3 | network_0/router_level3_0/sw_allocator | Input grants = [ 0 -> 9  1 -> 13  2 -> 14  3 -> 11  5 -> 15  7 -> 10  ], output grants = [ 9 -> 0  10 -> 7  11 -> 3  13 -> 1  14 -> 2  15 -> 5  ].
3 | network_0/router_level3_0 | Assigning output 13.0 to VC 0 at input 1.0.
3 | network_0/router_level3_0 | Assigning output 14.0 to VC 0 at input 2.0.
3 | network_0/router_level3_0 | Assigning output 11.0 to VC 0 at input 3.0.
3 | network_0/router_level3_0 | Assigning output 15.0 to VC 0 at input 5.0.
3 | network_0/router_level3_0 | Assigning output 10.0 to VC 0 at input 7.0.
3 | network_0/router_level3_0 | Completed VC allocation for VC 0 at input 4 (front: 4).
3 | network_0/router_level3_0 |   No output VC allocated.
3 | network_0/router_level3_0 | Completed VC allocation for VC 0 at input 6 (front: 6).
3 | network_0/router_level3_0 |   Acquiring assigned VC 1 at output 11.
3 | network_0/router_level3_0/buf_6/vc_0 | Changing state from vc_alloc to active.
3 | network_0/router_level3_0 | Completed switch allocation for VC 0 at input 1 (front: 1).
3 | network_0/router_level3_0 |   Scheduling switch connection from input 1.0 to output 13.0.
3 | network_0/router_level3_0 | Updating lookahead routing information for flit 1.
3 | network_0/router_level3_0 | Completed switch allocation for VC 0 at input 2 (front: 2).
3 | network_0/router_level3_0 |   Scheduling switch connection from input 2.0 to output 14.0.
3 | network_0/router_level3_0 | Updating lookahead routing information for flit 2.
3 | network_0/router_level3_0 | Completed switch allocation for VC 0 at input 3 (front: 3).
3 | network_0/router_level3_0 |   Scheduling switch connection from input 3.0 to output 11.0.
3 | network_0/router_level3_0 | Updating lookahead routing information for flit 3.
3 | network_0/router_level3_0 | Completed switch allocation for VC 0 at input 5 (front: 5).
3 | network_0/router_level3_0 |   Scheduling switch connection from input 5.0 to output 15.0.
3 | network_0/router_level3_0 | Updating lookahead routing information for flit 5.
3 | network_0/router_level3_0 | Completed switch allocation for VC 0 at input 7 (front: 7).
3 | network_0/router_level3_0 |   Scheduling switch connection from input 7.0 to output 10.0.
3 | network_0/router_level3_0 | Updating lookahead routing information for flit 7.
3 | network_0/router_level3_1 | Beginning VC allocation for VC 0 at input 2 (front: 10).
3 | network_0/router_level3_1 |   VC 0 at output 9 is in use by VC 0 at input 1 (front flit: 9).
3 | network_0/router_level3_1 |   Requesting VC 1 at output 9 (in_pri: 0, out_pri: 0).
3 | network_0/router_level3_1 |   Requesting VC 2 at output 9 (in_pri: 0, out_pri: 0).
3 | network_0/router_level3_1 |   Requesting VC 3 at output 9 (in_pri: 0, out_pri: 0).
3 | network_0/router_level3_1/vc_allocator | Input requests = [ 1 -> [ 56@0 57@0 58@0 59@0 ]  5 -> [ 56@0 57@0 58@0 59@0 ]  8 -> [ 37@0 38@0 39@0 ]  9 -> [ 32@0 33@0 34@0 35@0 ]  13 -> [ 32@0 33@0 34@0 35@0 ]  17 -> [ 32@0 33@0 34@0 35@0 ]  21 -> [ 56@0 57@0 58@0 59@0 ]  24 -> [ 61@0 62@0 63@0 ]  25 -> [ 48@0 49@0 50@0 51@0 ]  28 -> [ 61@0 62@0 63@0 ]  29 -> [ 56@0 57@0 58@0 59@0 ]  ], output requests = [ 32 -> [ 9@0 13@0 17@0 ]  33 -> [ 9@0 13@0 17@0 ]  34 -> [ 9@0 13@0 17@0 ]  35 -> [ 9@0 13@0 17@0 ]  37 -> [ 8@0 ]  38 -> [ 8@0 ]  39 -> [ 8@0 ]  48 -> [ 25@0 ]  49 -> [ 25@0 ]  50 -> [ 25@0 ]  51 -> [ 25@0 ]  56 -> [ 1@0 5@0 21@0 29@0 ]  57 -> [ 1@0 5@0 21@0 29@0 ]  58 -> [ 1@0 5@0 21@0 29@0 ]  59 -> [ 1@0 5@0 21@0 29@0 ]  61 -> [ 24@0 28@0 ]  62 -> [ 24@0 28@0 ]  63 -> [ 24@0 28@0 ]  ].
3 | network_0/router_level3_1/vc_allocator | Input grants = [ 1 -> 56  8 -> 37  9 -> 32  24 -> 61  25 -> 48  ], output grants = [ 32 -> 9  37 -> 8  48 -> 25  56 -> 1  61 -> 24  ].
3 | network_0/router_level3_1 | Assigning VC 1 at output 9 to VC 0 at input 2.
3 | network_0/router_level3_1 | Beginning switch allocation for VC 0 at input 0 (front: 8).
3 | network_0/router_level3_1 |   Requesting output 10.0 (non-spec, pri: 0).
3 | network_0/router_level3_1 | Beginning switch allocation for VC 0 at input 1 (front: 9).
3 | network_0/router_level3_1 |   Requesting output 9.0 (non-spec, pri: 0).
3 | network_0/router_level3_1/sw_allocator | Input requests = [ 0 -> [ 10@0 ]  1 -> [ 9@0 ]  3 -> [ 11@0 ]  4 -> [ 13@0 ]  5 -> [ 15@0 ]  ], output requests = [ 9 -> [ 1@0 ]  10 -> [ 0@0 ]  11 -> [ 3@0 ]  13 -> [ 4@0 ]  15 -> [ 5@0 ]  ].
3 | network_0/router_level3_1/sw_allocator | Input grants = [ 0 -> 10  1 -> 9  3 -> 11  4 -> 13  5 -> 15  ], output grants = [ 9 -> 1  10 -> 0  11 -> 3  13 -> 4  15 -> 5  ].
3 | network_0/router_level3_1 | Assigning output 10.0 to VC 0 at input 0.0.
3 | network_0/router_level3_1 | Assigning output 9.0 to VC 0 at input 1.0.
3 | network_0/router_level3_1 | Completed VC allocation for VC 0 at input 2 (front: 10).
3 | network_0/router_level3_1 |   Acquiring assigned VC 1 at output 9.
3 | network_0/router_level3_1/buf_2/vc_0 | Changing state from vc_alloc to active.
3 | network_0/router_level3_1 | Completed switch allocation for VC 0 at input 0 (front: 8).
3 | network_0/router_level3_1 |   Scheduling switch connection from input 0.0 to output 10.0.
3 | network_0/router_level3_1 | Updating lookahead routing information for flit 8.
3 | network_0/router_level3_1 | Completed switch allocation for VC 0 at input 1 (front: 9).
3 | network_0/router_level3_1 |   Scheduling switch connection from input 1.0 to output 9.0.
3 | network_0/router_level3_1 | Updating lookahead routing information for flit 9.
4 | network_0/router_level3_0 | Beginning VC allocation for VC 0 at input 4 (front: 4).
4 | network_0/router_level3_0 |   Requesting VC 0 at output 14 (in_pri: 0, out_pri: 0).
4 | network_0/router_level3_0 |   VC 1 at output 14 is in use by VC 1 at input 1 (front flit: 4097).
4 | network_0/router_level3_0 |   Requesting VC 2 at output 14 (in_pri: 0, out_pri: 0).
4 | network_0/router_level3_0 |   Requesting VC 3 at output 14 (in_pri: 0, out_pri: 0).
4 | network_0/router_level3_0/vc_allocator | Input requests = [ 2 -> [ 56@0 58@0 59@0 ]  6 -> [ 49@0 50@0 51@0 ]  9 -> [ 49@0 50@0 51@0 ]  10 -> [ 52@0 53@0 54@0 55@0 ]  14 -> [ 40@0 41@0 42@0 43@0 ]  16 -> [ 56@0 58@0 59@0 ]  18 -> [ 36@0 38@0 39@0 ]  21 -> [ 49@0 50@0 51@0 ]  22 -> [ 49@0 50@0 51@0 ]  26 -> [ 33@0 34@0 35@0 ]  29 -> [ 44@0 46@0 47@0 ]  30 -> [ 56@0 58@0 59@0 ]  ], output requests = [ 33 -> [ 26@0 ]  34 -> [ 26@0 ]  35 -> [ 26@0 ]  36 -> [ 18@0 ]  38 -> [ 18@0 ]  39 -> [ 18@0 ]  40 -> [ 14@0 ]  41 -> [ 14@0 ]  42 -> [ 14@0 ]  43 -> [ 14@0 ]  44 -> [ 29@0 ]  46 -> [ 29@0 ]  47 -> [ 29@0 ]  49 -> [ 6@0 9@0 21@0 22@0 ]  50 -> [ 6@0 9@0 21@0 22@0 ]  51 -> [ 6@0 9@0 21@0 22@0 ]  52 -> [ 10@0 ]  53 -> [ 10@0 ]  54 -> [ 10@0 ]  55 -> [ 10@0 ]  56 -> [ 2@0 16@0 30@0 ]  58 -> [ 2@0 16@0 30@0 ]  59 -> [ 2@0 16@0 30@0 ]  ].
4 | network_0/router_level3_0/vc_allocator | Input grants = [ 6 -> 49  10 -> 52  14 -> 40  16 -> 56  18 -> 36  26 -> 33  29 -> 44  ], output grants = [ 33 -> 26  36 -> 18  40 -> 14  44 -> 29  49 -> 6  52 -> 10  56 -> 16  ].
4 | network_0/router_level3_0 | Assigning VC 0 at output 14 to VC 0 at input 4.
4 | network_0/router_level3_0 | Beginning switch allocation for VC 0 at input 6 (front: 6).
4 | network_0/router_level3_0 |   Requesting output 11.0 (non-spec, pri: 0).
4 | network_0/router_level3_0/sw_allocator | Input requests = [ 0 -> [ 12@0 ]  1 -> [ 14@0 ]  3 -> [ 15@0 ]  4 -> [ 8@0 ]  6 -> [ 9@0 11@0 ]  ], output requests = [ 8 -> [ 4@0 ]  9 -> [ 6@0 ]  11 -> [ 6@0 ]  12 -> [ 0@0 ]  14 -> [ 1@0 ]  15 -> [ 3@0 ]  ].
4 | network_0/router_level3_0/sw_allocator | Input grants = [ 0 -> 12  1 -> 14  3 -> 15  4 -> 8  6 -> 9  ], output grants = [ 8 -> 4  9 -> 6  12 -> 0  14 -> 1  15 -> 3  ].
4 | network_0/router_level3_0 | Switch allocation failed for VC 0 at input 6: Granted to VC 1.
4 | network_0/router_level3_0 | Beginning crossbar traversal for flit 1 from input 1.0 to output 13.0.
4 | network_0/router_level3_0 | Beginning crossbar traversal for flit 2 from input 2.0 to output 14.0.
4 | network_0/router_level3_0 | Beginning crossbar traversal for flit 3 from input 3.0 to output 11.0.
4 | network_0/router_level3_0 | Beginning crossbar traversal for flit 5 from input 5.0 to output 15.0.
4 | network_0/router_level3_0 | Beginning crossbar traversal for flit 7 from input 7.0 to output 10.0.
4 | network_0/router_level3_0 | Completed VC allocation for VC 0 at input 4 (front: 4).
4 | network_0/router_level3_0 |   Acquiring assigned VC 0 at output 14.
4 | network_0/router_level3_0/buf_4/vc_0 | Changing state from vc_alloc to active.
4 | network_0/router_level3_0 | Completed switch allocation for VC 0 at input 6 (front: 6).
4 | network_0/router_level3_0 |   No output port allocated.
4 | network_0/router_level3_0 | Completed crossbar traversal for flit 1 from input 1.0 to output 13.0.
4 | network_0/router_level3_0 | Buffering flit 1 at output 13.
4 | network_0/router_level3_0 | Completed crossbar traversal for flit 2 from input 2.0 to output 14.0.
4 | network_0/router_level3_0 | Buffering flit 2 at output 14.
4 | network_0/router_level3_0 | Completed crossbar traversal for flit 3 from input 3.0 to output 11.0.
4 | network_0/router_level3_0 | Buffering flit 3 at output 11.
4 | network_0/router_level3_0 | Completed crossbar traversal for flit 5 from input 5.0 to output 15.0.
4 | network_0/router_level3_0 | Buffering flit 5 at output 15.
4 | network_0/router_level3_0 | Completed crossbar traversal for flit 7 from input 7.0 to output 10.0.
4 | network_0/router_level3_0 | Buffering flit 7 at output 10.
4 | network_0/router_level3_1 | Beginning switch allocation for VC 0 at input 2 (front: 10).
4 | network_0/router_level3_1 |   Requesting output 9.0 (non-spec, pri: 0).
4 | network_0/router_level3_1/sw_allocator | Input requests = [ 0 -> [ 14@0 ]  2 -> [ 8@0 9@0 ]  6 -> [ 12@0 15@0 ]  ], output requests = [ 8 -> [ 2@0 ]  9 -> [ 2@0 ]  12 -> [ 6@0 ]  14 -> [ 0@0 ]  15 -> [ 6@0 ]  ].
4 | network_0/router_level3_1/sw_allocator | Input grants = [ 0 -> 14  2 -> 8  6 -> 12  ], output grants = [ 8 -> 2  12 -> 6  14 -> 0  ].
4 | network_0/router_level3_1 | Switch allocation failed for VC 0 at input 2: Granted to VC 1.
4 | network_0/router_level3_1 | Beginning crossbar traversal for flit 8 from input 0.0 to output 10.0.
4 | network_0/router_level3_1 | Beginning crossbar traversal for flit 9 from input 1.0 to output 9.0.
4 | network_0/router_level3_1 | Completed switch allocation for VC 0 at input 2 (front: 10).
4 | network_0/router_level3_1 |   No output port allocated.
4 | network_0/router_level3_1 | Completed crossbar traversal for flit 8 from input 0.0 to output 10.0.
4 | network_0/router_level3_1 | Buffering flit 8 at output 10.
4 | network_0/router_level3_1 | Completed crossbar traversal for flit 9 from input 1.0 to output 9.0.
4 | network_0/router_level3_1 | Buffering flit 9 at output 9.
4 | network_0/router_level3_0 | Sending flit 7 to channel at output 10.
4 | network_0/router_level3_0 | Sending flit 3 to channel at output 11.
4 | network_0/router_level3_0 | Sending flit 1 to channel at output 13.
4 | network_0/router_level3_0 | Sending flit 2 to channel at output 14.
4 | network_0/router_level3_0 | Sending flit 5 to channel at output 15.
4 | network_0/router_level3_1 | Sending flit 9 to channel at output 9.
4 | network_0/router_level3_1 | Sending flit 8 to channel at output 10.
5 | network_0/network_0_fchan_20482 | Beginning channel traversal for flit 7 with delay 1.
5 | network_0/network_0_fchan_20483 | Beginning channel traversal for flit 3 with delay 1.
5 | network_0/network_0_fchan_20485 | Beginning channel traversal for flit 1 with delay 1.
5 | network_0/network_0_fchan_20486 | Beginning channel traversal for flit 2 with delay 1.
5 | network_0/network_0_fchan_20487 | Beginning channel traversal for flit 5 with delay 1.
5 | network_0/network_0_fchan_20489 | Beginning channel traversal for flit 9 with delay 1.
5 | network_0/network_0_fchan_20490 | Beginning channel traversal for flit 8 with delay 1.
5 | network_0/router_level3_0 | Beginning switch allocation for VC 0 at input 4 (front: 4).
5 | network_0/router_level3_0 |   Requesting output 14.0 (non-spec, pri: 0).
5 | network_0/router_level3_0 | Beginning switch allocation for VC 0 at input 6 (front: 6).
5 | network_0/router_level3_0 |   Requesting output 11.0 (non-spec, pri: 0).
5 | network_0/router_level3_0/sw_allocator | Input requests = [ 1 -> [ 12@0 ]  2 -> [ 13@0 ]  3 -> [ 10@0 ]  4 -> [ 9@0 14@0 ]  6 -> [ 8@0 11@0 ]  7 -> [ 11@0 ]  ], output requests = [ 8 -> [ 6@0 ]  9 -> [ 4@0 ]  10 -> [ 3@0 ]  11 -> [ 6@0 7@0 ]  12 -> [ 1@0 ]  13 -> [ 2@0 ]  14 -> [ 4@0 ]  ].
5 | network_0/router_level3_0/sw_allocator | Input grants = [ 1 -> 12  2 -> 13  3 -> 10  4 -> 9  6 -> 11  ], output grants = [ 9 -> 4  10 -> 3  11 -> 6  12 -> 1  13 -> 2  ].
5 | network_0/router_level3_0 | Switch allocation failed for VC 0 at input 4: Granted to VC 2.
5 | network_0/router_level3_0 | Assigning output 11.0 to VC 0 at input 6.0.
5 | network_0/router_level3_0 | Completed switch allocation for VC 0 at input 4 (front: 4).
5 | network_0/router_level3_0 |   No output port allocated.
5 | network_0/router_level3_0 | Completed switch allocation for VC 0 at input 6 (front: 6).
5 | network_0/router_level3_0 |   Scheduling switch connection from input 6.0 to output 11.0.
5 | network_0/router_level3_0 | Updating lookahead routing information for flit 6.
5 | network_0/router_level3_1 | Beginning switch allocation for VC 0 at input 2 (front: 10).
5 | network_0/router_level3_1 |   Output 9.0 was already requested by VC 2 with priority 0 (pri: 0).
5 | network_0/router_level3_1 | Switch allocation failed for VC 0 at input 2: Granted to VC 2.
5 | network_0/router_level3_1 | Completed switch allocation for VC 0 at input 2 (front: 10).
5 | network_0/router_level3_1 |   No output port allocated.
5 | network_0/network_0_fchan_20482 | Completed channel traversal for flit 7.
5 | network_0/network_0_fchan_20483 | Completed channel traversal for flit 3.
5 | network_0/network_0_fchan_20485 | Completed channel traversal for flit 1.
5 | network_0/network_0_fchan_20486 | Completed channel traversal for flit 2.
5 | network_0/network_0_fchan_20487 | Completed channel traversal for flit 5.
5 | network_0/network_0_fchan_20489 | Completed channel traversal for flit 9.
5 | network_0/network_0_fchan_20490 | Completed channel traversal for flit 8.
6 | network_0/router_level2_1 | Received flit 9 from channel at input 1.
6 | network_0/router_level2_2 | Received flit 7 from channel at input 0.
6 | network_0/router_level2_2 | Received flit 8 from channel at input 1.
6 | network_0/router_level2_3 | Received flit 3 from channel at input 0.
6 | network_0/router_level2_5 | Received flit 1 from channel at input 0.
6 | network_0/router_level2_6 | Received flit 2 from channel at input 0.
6 | network_0/router_level2_7 | Received flit 5 from channel at input 0.
6 | network_0/router_level2_1 | Adding flit 9 to VC 0 at input 1 (state: idle, empty).
6 | network_0/router_level2_1 | Using precomputed lookahead routing information for VC 0 at input 1 (front: 9).
6 | network_0/router_level2_1/buf_1/vc_0 | Changing state from idle to vc_alloc.
6 | network_0/router_level2_1 | Beginning VC allocation for VC 0 at input 1 (front: 9).
6 | network_0/router_level2_1 |   Requesting VC 0 at output 15 (in_pri: 0, out_pri: 0).
6 | network_0/router_level2_1 |   Requesting VC 1 at output 15 (in_pri: 0, out_pri: 0).
6 | network_0/router_level2_1 |   Requesting VC 2 at output 15 (in_pri: 0, out_pri: 0).
6 | network_0/router_level2_1 |   Requesting VC 3 at output 15 (in_pri: 0, out_pri: 0).
6 | network_0/router_level2_1/vc_allocator | Input requests = [ 0 -> [ 44@0 45@0 46@0 47@0 ]  4 -> [ 60@0 61@0 62@0 63@0 ]  8 -> [ 52@0 53@0 54@0 55@0 ]  12 -> [ 52@0 53@0 54@0 55@0 ]  24 -> [ 36@0 37@0 38@0 39@0 ]  28 -> [ 44@0 45@0 46@0 47@0 ]  ], output requests = [ 36 -> [ 24@0 ]  37 -> [ 24@0 ]  38 -> [ 24@0 ]  39 -> [ 24@0 ]  44 -> [ 0@0 28@0 ]  45 -> [ 0@0 28@0 ]  46 -> [ 0@0 28@0 ]  47 -> [ 0@0 28@0 ]  52 -> [ 8@0 12@0 ]  53 -> [ 8@0 12@0 ]  54 -> [ 8@0 12@0 ]  55 -> [ 8@0 12@0 ]  60 -> [ 4@0 ]  61 -> [ 4@0 ]  62 -> [ 4@0 ]  63 -> [ 4@0 ]  ].
6 | network_0/router_level2_1/vc_allocator | Input grants = [ 0 -> 44  4 -> 60  8 -> 52  24 -> 36  ], output grants = [ 36 -> 24  44 -> 0  52 -> 8  60 -> 4  ].
6 | network_0/router_level2_1 | Assigning VC 0 at output 15 to VC 0 at input 1.
6 | network_0/router_level2_1 | Completed VC allocation for VC 0 at input 1 (front: 9).
6 | network_0/router_level2_1 |   Acquiring assigned VC 0 at output 15.
6 | network_0/router_level2_1/buf_1/vc_0 | Changing state from vc_alloc to active.
6 | network_0/router_level2_2 | Adding flit 7 to VC 0 at input 0 (state: idle, empty).
6 | network_0/router_level2_2 | Using precomputed lookahead routing information for VC 0 at input 0 (front: 7).
6 | network_0/router_level2_2/buf_0/vc_0 | Changing state from idle to vc_alloc.
6 | network_0/router_level2_2 | Adding flit 8 to VC 0 at input 1 (state: idle, empty).
6 | network_0/router_level2_2 | Using precomputed lookahead routing information for VC 0 at input 1 (front: 8).
6 | network_0/router_level2_2/buf_1/vc_0 | Changing state from idle to vc_alloc.
6 | network_0/router_level2_2 | Beginning VC allocation for VC 0 at input 0 (front: 7).
6 | network_0/router_level2_2 |   Requesting VC 0 at output 15 (in_pri: 0, out_pri: 0).
6 | network_0/router_level2_2 |   Requesting VC 1 at output 15 (in_pri: 0, out_pri: 0).
6 | network_0/router_level2_2 |   Requesting VC 2 at output 15 (in_pri: 0, out_pri: 0).
6 | network_0/router_level2_2 |   Requesting VC 3 at output 15 (in_pri: 0, out_pri: 0).
6 | network_0/router_level2_2 | Beginning VC allocation for VC 0 at input 1 (front: 8).
6 | network_0/router_level2_2 |   Requesting VC 0 at output 14 (in_pri: 0, out_pri: 0).
6 | network_0/router_level2_2 |   Requesting VC 1 at output 14 (in_pri: 0, out_pri: 0).
6 | network_0/router_level2_2 |   Requesting VC 2 at output 14 (in_pri: 0, out_pri: 0).
6 | network_0/router_level2_2 |   Requesting VC 3 at output 14 (in_pri: 0, out_pri: 0).
6 | network_0/router_level2_2/vc_allocator | Input requests = [ 0 -> [ 60@0 61@0 62@0 63@0 ]  4 -> [ 56@0 57@0 58@0 59@0 ]  12 -> [ 40@0 41@0 42@0 43@0 ]  16 -> [ 44@0 45@0 46@0 47@0 ]  20 -> [ 56@0 57@0 58@0 59@0 ]  28 -> [ 48@0 49@0 50@0 51@0 ]  ], output requests = [ 40 -> [ 12@0 ]  41 -> [ 12@0 ]  42 -> [ 12@0 ]  43 -> [ 12@0 ]  44 -> [ 16@0 ]  45 -> [ 16@0 ]  46 -> [ 16@0 ]  47 -> [ 16@0 ]  48 -> [ 28@0 ]  49 -> [ 28@0 ]  50 -> [ 28@0 ]  51 -> [ 28@0 ]  56 -> [ 4@0 20@0 ]  57 -> [ 4@0 20@0 ]  58 -> [ 4@0 20@0 ]  59 -> [ 4@0 20@0 ]  60 -> [ 0@0 ]  61 -> [ 0@0 ]  62 -> [ 0@0 ]  63 -> [ 0@0 ]  ].
6 | network_0/router_level2_2/vc_allocator | Input grants = [ 0 -> 60  4 -> 56  12 -> 40  16 -> 44  28 -> 48  ], output grants = [ 40 -> 12  44 -> 16  48 -> 28  56 -> 4  60 -> 0  ].
6 | network_0/router_level2_2 | Assigning VC 0 at output 15 to VC 0 at input 0.
6 | network_0/router_level2_2 | Assigning VC 0 at output 14 to VC 0 at input 1.
6 | network_0/router_level2_2 | Completed VC allocation for VC 0 at input 0 (front: 7).
6 | network_0/router_level2_2 |   Acquiring assigned VC 0 at output 15.
6 | network_0/router_level2_2/buf_0/vc_0 | Changing state from vc_alloc to active.
6 | network_0/router_level2_2 | Completed VC allocation for VC 0 at input 1 (front: 8).
6 | network_0/router_level2_2 |   Acquiring assigned VC 0 at output 14.
6 | network_0/router_level2_2/buf_1/vc_0 | Changing state from vc_alloc to active.
6 | network_0/router_level2_3 | Adding flit 3 to VC 0 at input 0 (state: idle, empty).
6 | network_0/router_level2_3 | Using precomputed lookahead routing information for VC 0 at input 0 (front: 3).
6 | network_0/router_level2_3/buf_0/vc_0 | Changing state from idle to vc_alloc.
6 | network_0/router_level2_3 | Beginning VC allocation for VC 0 at input 0 (front: 3).
6 | network_0/router_level2_3 |   Requesting VC 0 at output 8 (in_pri: 0, out_pri: 0).
6 | network_0/router_level2_3 |   Requesting VC 1 at output 8 (in_pri: 0, out_pri: 0).
6 | network_0/router_level2_3 |   Requesting VC 2 at output 8 (in_pri: 0, out_pri: 0).
6 | network_0/router_level2_3 |   Requesting VC 3 at output 8 (in_pri: 0, out_pri: 0).
6 | network_0/router_level2_3/vc_allocator | Input requests = [ 0 -> [ 32@0 33@0 34@0 35@0 ]  4 -> [ 36@0 37@0 38@0 39@0 ]  8 -> [ 44@0 45@0 46@0 47@0 ]  16 -> [ 52@0 53@0 54@0 55@0 ]  20 -> [ 52@0 53@0 54@0 55@0 ]  24 -> [ 56@0 57@0 58@0 59@0 ]  ], output requests = [ 32 -> [ 0@0 ]  33 -> [ 0@0 ]  34 -> [ 0@0 ]  35 -> [ 0@0 ]  36 -> [ 4@0 ]  37 -> [ 4@0 ]  38 -> [ 4@0 ]  39 -> [ 4@0 ]  44 -> [ 8@0 ]  45 -> [ 8@0 ]  46 -> [ 8@0 ]  47 -> [ 8@0 ]  52 -> [ 16@0 20@0 ]  53 -> [ 16@0 20@0 ]  54 -> [ 16@0 20@0 ]  55 -> [ 16@0 20@0 ]  56 -> [ 24@0 ]  57 -> [ 24@0 ]  58 -> [ 24@0 ]  59 -> [ 24@0 ]  ].
6 | network_0/router_level2_3/vc_allocator | Input grants = [ 0 -> 32  4 -> 36  8 -> 44  16 -> 52  24 -> 56  ], output grants = [ 32 -> 0  36 -> 4  44 -> 8  52 -> 16  56 -> 24  ].
6 | network_0/router_level2_3 | Assigning VC 0 at output 8 to VC 0 at input 0.
6 | network_0/router_level2_3 | Completed VC allocation for VC 0 at input 0 (front: 3).
6 | network_0/router_level2_3 |   Acquiring assigned VC 0 at output 8.
6 | network_0/router_level2_3/buf_0/vc_0 | Changing state from vc_alloc to active.
6 | network_0/router_level2_5 | Adding flit 1 to VC 0 at input 0 (state: idle, empty).
6 | network_0/router_level2_5 | Using precomputed lookahead routing information for VC 0 at input 0 (front: 1).
6 | network_0/router_level2_5/buf_0/vc_0 | Changing state from idle to vc_alloc.
6 | network_0/router_level2_5 | Beginning VC allocation for VC 0 at input 0 (front: 1).
6 | network_0/router_level2_5 |   Requesting VC 0 at output 12 (in_pri: 0, out_pri: 0).
6 | network_0/router_level2_5 |   Requesting VC 1 at output 12 (in_pri: 0, out_pri: 0).
6 | network_0/router_level2_5 |   Requesting VC 2 at output 12 (in_pri: 0, out_pri: 0).
6 | network_0/router_level2_5 |   Requesting VC 3 at output 12 (in_pri: 0, out_pri: 0).
6 | network_0/router_level2_5/vc_allocator | Input requests = [ 0 -> [ 48@0 49@0 50@0 51@0 ]  4 -> [ 60@0 61@0 62@0 63@0 ]  8 -> [ 52@0 53@0 54@0 55@0 ]  12 -> [ 44@0 45@0 46@0 47@0 ]  16 -> [ 56@0 57@0 58@0 59@0 ]  20 -> [ 36@0 37@0 38@0 39@0 ]  28 -> [ 40@0 41@0 42@0 43@0 ]  ], output requests = [ 36 -> [ 20@0 ]  37 -> [ 20@0 ]  38 -> [ 20@0 ]  39 -> [ 20@0 ]  40 -> [ 28@0 ]  41 -> [ 28@0 ]  42 -> [ 28@0 ]  43 -> [ 28@0 ]  44 -> [ 12@0 ]  45 -> [ 12@0 ]  46 -> [ 12@0 ]  47 -> [ 12@0 ]  48 -> [ 0@0 ]  49 -> [ 0@0 ]  50 -> [ 0@0 ]  51 -> [ 0@0 ]  52 -> [ 8@0 ]  53 -> [ 8@0 ]  54 -> [ 8@0 ]  55 -> [ 8@0 ]  56 -> [ 16@0 ]  57 -> [ 16@0 ]  58 -> [ 16@0 ]  59 -> [ 16@0 ]  60 -> [ 4@0 ]  61 -> [ 4@0 ]  62 -> [ 4@0 ]  63 -> [ 4@0 ]  ].
6 | network_0/router_level2_5/vc_allocator | Input grants = [ 0 -> 48  4 -> 60  8 -> 52  12 -> 44  16 -> 56  20 -> 36  28 -> 40  ], output grants = [ 36 -> 20  40 -> 28  44 -> 12  48 -> 0  52 -> 8  56 -> 16  60 -> 4  ].
6 | network_0/router_level2_5 | Assigning VC 0 at output 12 to VC 0 at input 0.
6 | network_0/router_level2_5 | Completed VC allocation for VC 0 at input 0 (front: 1).
6 | network_0/router_level2_5 |   Acquiring assigned VC 0 at output 12.
6 | network_0/router_level2_5/buf_0/vc_0 | Changing state from vc_alloc to active.
6 | network_0/router_level2_6 | Adding flit 2 to VC 0 at input 0 (state: idle, empty).
6 | network_0/router_level2_6 | Using precomputed lookahead routing information for VC 0 at input 0 (front: 2).
6 | network_0/router_level2_6/buf_0/vc_0 | Changing state from idle to vc_alloc.
6 | network_0/router_level2_6 | Beginning VC allocation for VC 0 at input 0 (front: 2).
6 | network_0/router_level2_6 |   Requesting VC 0 at output 12 (in_pri: 0, out_pri: 0).
6 | network_0/router_level2_6 |   Requesting VC 1 at output 12 (in_pri: 0, out_pri: 0).
6 | network_0/router_level2_6 |   Requesting VC 2 at output 12 (in_pri: 0, out_pri: 0).
6 | network_0/router_level2_6 |   Requesting VC 3 at output 12 (in_pri: 0, out_pri: 0).
6 | network_0/router_level2_6/vc_allocator | Input requests = [ 0 -> [ 48@0 49@0 50@0 51@0 ]  12 -> [ 60@0 61@0 62@0 63@0 ]  24 -> [ 56@0 57@0 58@0 59@0 ]  28 -> [ 48@0 49@0 50@0 51@0 ]  ], output requests = [ 48 -> [ 0@0 28@0 ]  49 -> [ 0@0 28@0 ]  50 -> [ 0@0 28@0 ]  51 -> [ 0@0 28@0 ]  56 -> [ 24@0 ]  57 -> [ 24@0 ]  58 -> [ 24@0 ]  59 -> [ 24@0 ]  60 -> [ 12@0 ]  61 -> [ 12@0 ]  62 -> [ 12@0 ]  63 -> [ 12@0 ]  ].
6 | network_0/router_level2_6/vc_allocator | Input grants = [ 0 -> 48  12 -> 60  24 -> 56  ], output grants = [ 48 -> 0  56 -> 24  60 -> 12  ].
6 | network_0/router_level2_6 | Assigning VC 0 at output 12 to VC 0 at input 0.
6 | network_0/router_level2_6 | Completed VC allocation for VC 0 at input 0 (front: 2).
6 | network_0/router_level2_6 |   Acquiring assigned VC 0 at output 12.
6 | network_0/router_level2_6/buf_0/vc_0 | Changing state from vc_alloc to active.
6 | network_0/router_level2_7 | Adding flit 5 to VC 0 at input 0 (state: idle, empty).
6 | network_0/router_level2_7 | Using precomputed lookahead routing information for VC 0 at input 0 (front: 5).
6 | network_0/router_level2_7/buf_0/vc_0 | Changing state from idle to vc_alloc.
6 | network_0/router_level2_7 | Beginning VC allocation for VC 0 at input 0 (front: 5).
6 | network_0/router_level2_7 |   Requesting VC 0 at output 13 (in_pri: 0, out_pri: 0).
6 | network_0/router_level2_7 |   Requesting VC 1 at output 13 (in_pri: 0, out_pri: 0).
6 | network_0/router_level2_7 |   Requesting VC 2 at output 13 (in_pri: 0, out_pri: 0).
6 | network_0/router_level2_7 |   Requesting VC 3 at output 13 (in_pri: 0, out_pri: 0).
6 | network_0/router_level2_7/vc_allocator | Input requests = [ 0 -> [ 52@0 53@0 54@0 55@0 ]  4 -> [ 44@0 45@0 46@0 47@0 ]  8 -> [ 44@0 45@0 46@0 47@0 ]  12 -> [ 48@0 49@0 50@0 51@0 ]  16 -> [ 36@0 37@0 38@0 39@0 ]  24 -> [ 44@0 45@0 46@0 47@0 ]  28 -> [ 56@0 57@0 58@0 59@0 ]  ], output requests = [ 36 -> [ 16@0 ]  37 -> [ 16@0 ]  38 -> [ 16@0 ]  39 -> [ 16@0 ]  44 -> [ 4@0 8@0 24@0 ]  45 -> [ 4@0 8@0 24@0 ]  46 -> [ 4@0 8@0 24@0 ]  47 -> [ 4@0 8@0 24@0 ]  48 -> [ 12@0 ]  49 -> [ 12@0 ]  50 -> [ 12@0 ]  51 -> [ 12@0 ]  52 -> [ 0@0 ]  53 -> [ 0@0 ]  54 -> [ 0@0 ]  55 -> [ 0@0 ]  56 -> [ 28@0 ]  57 -> [ 28@0 ]  58 -> [ 28@0 ]  59 -> [ 28@0 ]  ].
6 | network_0/router_level2_7/vc_allocator | Input grants = [ 0 -> 52  4 -> 44  12 -> 48  16 -> 36  28 -> 56  ], output grants = [ 36 -> 16  44 -> 4  48 -> 12  52 -> 0  56 -> 28  ].
6 | network_0/router_level2_7 | Assigning VC 0 at output 13 to VC 0 at input 0.
6 | network_0/router_level2_7 | Completed VC allocation for VC 0 at input 0 (front: 5).
6 | network_0/router_level2_7 |   Acquiring assigned VC 0 at output 13.
6 | network_0/router_level2_7/buf_0/vc_0 | Changing state from vc_alloc to active.
6 | network_0/router_level3_0 | Beginning switch allocation for VC 0 at input 4 (front: 4).
6 | network_0/router_level3_0 |   Requesting output 14.0 (non-spec, pri: 0).
6 | network_0/router_level3_0/sw_allocator | Input requests = [ 0 -> [ 12@0 ]  1 -> [ 13@0 ]  3 -> [ 14@0 ]  4 -> [ 14@0 ]  5 -> [ 11@0 ]  6 -> [ 8@0 15@0 ]  7 -> [ 10@0 11@0 ]  ], output requests = [ 8 -> [ 6@0 ]  10 -> [ 7@0 ]  11 -> [ 5@0 7@0 ]  12 -> [ 0@0 ]  13 -> [ 1@0 ]  14 -> [ 3@0 4@0 ]  15 -> [ 6@0 ]  ].
6 | network_0/router_level3_0/sw_allocator | Input grants = [ 0 -> 12  1 -> 13  3 -> 14  6 -> 15  7 -> 11  ], output grants = [ 11 -> 7  12 -> 0  13 -> 1  14 -> 3  15 -> 6  ].
6 | network_0/router_level3_0 | Switch allocation failed for VC 0 at input 4: No output granted.
6 | network_0/router_level3_0 | Beginning crossbar traversal for flit 6 from input 6.0 to output 11.0.
6 | network_0/router_level3_0 | Completed switch allocation for VC 0 at input 4 (front: 4).
6 | network_0/router_level3_0 |   No output port allocated.
6 | network_0/router_level3_0 | Completed crossbar traversal for flit 6 from input 6.0 to output 11.0.
6 | network_0/router_level3_0 | Buffering flit 6 at output 11.
6 | network_0/router_level3_1 | Beginning switch allocation for VC 0 at input 2 (front: 10).
6 | network_0/router_level3_1 |   Requesting output 9.0 (non-spec, pri: 0).
6 | network_0/router_level3_1/sw_allocator | Input requests = [ 0 -> [ 9@0 ]  1 -> [ 14@0 ]  2 -> [ 8@0 9@0 ]  3 -> [ 10@0 11@0 ]  4 -> [ 14@0 ]  5 -> [ 15@0 ]  6 -> [ 12@0 ]  7 -> [ 15@0 ]  ], output requests = [ 8 -> [ 2@0 ]  9 -> [ 0@0 2@0 ]  10 -> [ 3@0 ]  11 -> [ 3@0 ]  12 -> [ 6@0 ]  14 -> [ 1@0 4@0 ]  15 -> [ 5@0 7@0 ]  ].
6 | network_0/router_level3_1/sw_allocator | Input grants = [ 0 -> 9  1 -> 14  2 -> 8  3 -> 10  6 -> 12  7 -> 15  ], output grants = [ 8 -> 2  9 -> 0  10 -> 3  12 -> 6  14 -> 1  15 -> 7  ].
6 | network_0/router_level3_1 | Switch allocation failed for VC 0 at input 2: Granted to VC 3.
6 | network_0/router_level3_1 | Completed switch allocation for VC 0 at input 2 (front: 10).
6 | network_0/router_level3_1 |   No output port allocated.
6 | network_0/router_level3_0 | Sending flit 6 to channel at output 11.
7 | network_0/network_0_fchan_20483 | Beginning channel traversal for flit 6 with delay 1.
7 | network_0/router_level2_1 | Beginning switch allocation for VC 0 at input 1 (front: 9).
7 | network_0/router_level2_1 |   Requesting output 15.0 (non-spec, pri: 0).
7 | network_0/router_level2_1/sw_allocator | Input requests = [ 0 -> [ 11@0 ]  1 -> [ 15@0 ]  2 -> [ 13@0 ]  6 -> [ 9@0 ]  ], output requests = [ 9 -> [ 6@0 ]  11 -> [ 0@0 ]  13 -> [ 2@0 ]  15 -> [ 1@0 ]  ].
7 | network_0/router_level2_1/sw_allocator | Input grants = [ 0 -> 11  1 -> 15  2 -> 13  6 -> 9  ], output grants = [ 9 -> 6  11 -> 0  13 -> 2  15 -> 1  ].
7 | network_0/router_level2_1 | Assigning output 15.0 to VC 0 at input 1.0.
7 | network_0/router_level2_1 | Completed switch allocation for VC 0 at input 1 (front: 9).
7 | network_0/router_level2_1 |   Scheduling switch connection from input 1.0 to output 15.0.
7 | network_0/router_level2_1 | Updating lookahead routing information for flit 9.
7 | network_0/router_level2_2 | Beginning switch allocation for VC 0 at input 0 (front: 7).
7 | network_0/router_level2_2 |   Requesting output 15.0 (non-spec, pri: 0).
7 | network_0/router_level2_2 | Beginning switch allocation for VC 0 at input 1 (front: 8).
7 | network_0/router_level2_2 |   Requesting output 14.0 (non-spec, pri: 0).
7 | network_0/router_level2_2/sw_allocator | Input requests = [ 0 -> [ 15@0 ]  1 -> [ 14@0 ]  3 -> [ 10@0 ]  4 -> [ 11@0 ]  7 -> [ 12@0 ]  ], output requests = [ 10 -> [ 3@0 ]  11 -> [ 4@0 ]  12 -> [ 7@0 ]  14 -> [ 1@0 ]  15 -> [ 0@0 ]  ].
7 | network_0/router_level2_2/sw_allocator | Input grants = [ 0 -> 15  1 -> 14  3 -> 10  4 -> 11  7 -> 12  ], output grants = [ 10 -> 3  11 -> 4  12 -> 7  14 -> 1  15 -> 0  ].
7 | network_0/router_level2_2 | Assigning output 15.0 to VC 0 at input 0.0.
7 | network_0/router_level2_2 | Assigning output 14.0 to VC 0 at input 1.0.
7 | network_0/router_level2_2 | Completed switch allocation for VC 0 at input 0 (front: 7).
7 | network_0/router_level2_2 |   Scheduling switch connection from input 0.0 to output 15.0.
7 | network_0/router_level2_2 | Updating lookahead routing information for flit 7.
7 | network_0/router_level2_2 | Completed switch allocation for VC 0 at input 1 (front: 8).
7 | network_0/router_level2_2 |   Scheduling switch connection from input 1.0 to output 14.0.
7 | network_0/router_level2_2 | Updating lookahead routing information for flit 8.
7 | network_0/router_level2_3 | Beginning switch allocation for VC 0 at input 0 (front: 3).
7 | network_0/router_level2_3 |   Requesting output 8.0 (non-spec, pri: 0).
7 | network_0/router_level2_3/sw_allocator | Input requests = [ 0 -> [ 8@0 ]  1 -> [ 9@0 ]  2 -> [ 11@0 ]  4 -> [ 13@0 ]  6 -> [ 14@0 ]  ], output requests = [ 8 -> [ 0@0 ]  9 -> [ 1@0 ]  11 -> [ 2@0 ]  13 -> [ 4@0 ]  14 -> [ 6@0 ]  ].
7 | network_0/router_level2_3/sw_allocator | Input grants = [ 0 -> 8  1 -> 9  2 -> 11  4 -> 13  6 -> 14  ], output grants = [ 8 -> 0  9 -> 1  11 -> 2  13 -> 4  14 -> 6  ].
7 | network_0/router_level2_3 | Assigning output 8.0 to VC 0 at input 0.0.
7 | network_0/router_level2_3 | Completed switch allocation for VC 0 at input 0 (front: 3).
7 | network_0/router_level2_3 |   Scheduling switch connection from input 0.0 to output 8.0.
7 | network_0/router_level2_3 | Updating lookahead routing information for flit 3.
7 | network_0/router_level2_5 | Beginning switch allocation for VC 0 at input 0 (front: 1).
7 | network_0/router_level2_5 |   Requesting output 12.0 (non-spec, pri: 0).
7 | network_0/router_level2_5/sw_allocator | Input requests = [ 0 -> [ 12@0 ]  1 -> [ 15@0 ]  2 -> [ 13@0 ]  3 -> [ 11@0 ]  4 -> [ 14@0 ]  5 -> [ 9@0 ]  7 -> [ 10@0 ]  ], output requests = [ 9 -> [ 5@0 ]  10 -> [ 7@0 ]  11 -> [ 3@0 ]  12 -> [ 0@0 ]  13 -> [ 2@0 ]  14 -> [ 4@0 ]  15 -> [ 1@0 ]  ].
7 | network_0/router_level2_5/sw_allocator | Input grants = [ 0 -> 12  1 -> 15  2 -> 13  3 -> 11  4 -> 14  5 -> 9  7 -> 10  ], output grants = [ 9 -> 5  10 -> 7  11 -> 3  12 -> 0  13 -> 2  14 -> 4  15 -> 1  ].
7 | network_0/router_level2_5 | Assigning output 12.0 to VC 0 at input 0.0.
7 | network_0/router_level2_5 | Completed switch allocation for VC 0 at input 0 (front: 1).
7 | network_0/router_level2_5 |   Scheduling switch connection from input 0.0 to output 12.0.
7 | network_0/router_level2_5 | Updating lookahead routing information for flit 1.
7 | network_0/router_level2_6 | Beginning switch allocation for VC 0 at input 0 (front: 2).
7 | network_0/router_level2_6 |   Requesting output 12.0 (non-spec, pri: 0).
7 | network_0/router_level2_6/sw_allocator | Input requests = [ 0 -> [ 12@0 ]  3 -> [ 15@0 ]  6 -> [ 14@0 ]  ], output requests = [ 12 -> [ 0@0 ]  14 -> [ 6@0 ]  15 -> [ 3@0 ]  ].
7 | network_0/router_level2_6/sw_allocator | Input grants = [ 0 -> 12  3 -> 15  6 -> 14  ], output grants = [ 12 -> 0  14 -> 6  15 -> 3  ].
7 | network_0/router_level2_6 | Assigning output 12.0 to VC 0 at input 0.0.
7 | network_0/router_level2_6 | Completed switch allocation for VC 0 at input 0 (front: 2).
7 | network_0/router_level2_6 |   Scheduling switch connection from input 0.0 to output 12.0.
7 | network_0/router_level2_6 | Updating lookahead routing information for flit 2.
7 | network_0/router_level2_7 | Beginning switch allocation for VC 0 at input 0 (front: 5).
7 | network_0/router_level2_7 |   Requesting output 13.0 (non-spec, pri: 0).
7 | network_0/router_level2_7/sw_allocator | Input requests = [ 0 -> [ 13@0 ]  1 -> [ 11@0 ]  3 -> [ 12@0 ]  4 -> [ 9@0 ]  7 -> [ 14@0 ]  ], output requests = [ 9 -> [ 4@0 ]  11 -> [ 1@0 ]  12 -> [ 3@0 ]  13 -> [ 0@0 ]  14 -> [ 7@0 ]  ].
7 | network_0/router_level2_7/sw_allocator | Input grants = [ 0 -> 13  1 -> 11  3 -> 12  4 -> 9  7 -> 14  ], output grants = [ 9 -> 4  11 -> 1  12 -> 3  13 -> 0  14 -> 7  ].
7 | network_0/router_level2_7 | Assigning output 13.0 to VC 0 at input 0.0.
7 | network_0/router_level2_7 | Completed switch allocation for VC 0 at input 0 (front: 5).
7 | network_0/router_level2_7 |   Scheduling switch connection from input 0.0 to output 13.0.
7 | network_0/router_level2_7 | Updating lookahead routing information for flit 5.
7 | network_0/router_level3_0 | Beginning switch allocation for VC 0 at input 4 (front: 4).
7 | network_0/router_level3_0 |   Requesting output 14.0 (non-spec, pri: 0).
7 | network_0/router_level3_0/sw_allocator | Input requests = [ 0 -> [ 14@0 ]  2 -> [ 12@0 ]  3 -> [ 10@0 ]  4 -> [ 13@0 14@0 ]  5 -> [ 11@0 15@0 ]  6 -> [ 8@0 9@0 ]  7 -> [ 8@0 10@0 ]  ], output requests = [ 8 -> [ 6@0 7@0 ]  9 -> [ 6@0 ]  10 -> [ 3@0 7@0 ]  11 -> [ 5@0 ]  12 -> [ 2@0 ]  13 -> [ 4@0 ]  14 -> [ 0@0 4@0 ]  15 -> [ 5@0 ]  ].
7 | network_0/router_level3_0/sw_allocator | Input grants = [ 0 -> 14  2 -> 12  3 -> 10  4 -> 13  5 -> 11  6 -> 8  ], output grants = [ 8 -> 6  10 -> 3  11 -> 5  12 -> 2  13 -> 4  14 -> 0  ].
7 | network_0/router_level3_0 | Switch allocation failed for VC 0 at input 4: Granted to VC 3.
7 | network_0/router_level3_0 | Completed switch allocation for VC 0 at input 4 (front: 4).
7 | network_0/router_level3_0 |   No output port allocated.
7 | network_0/router_level3_1 | Beginning switch allocation for VC 0 at input 2 (front: 10).
7 | network_0/router_level3_1 |   Requesting output 9.0 (non-spec, pri: 0).
7 | network_0/router_level3_1/sw_allocator | Input requests = [ 0 -> [ 15@0 ]  1 -> [ 11@0 ]  2 -> [ 9@0 ]  3 -> [ 11@0 12@0 ]  4 -> [ 8@0 9@0 14@0 ]  5 -> [ 15@0 ]  ], output requests = [ 8 -> [ 4@0 ]  9 -> [ 2@0 4@0 ]  11 -> [ 1@0 3@0 ]  12 -> [ 3@0 ]  14 -> [ 4@0 ]  15 -> [ 0@0 5@0 ]  ].
7 | network_0/router_level3_1/sw_allocator | Input grants = [ 0 -> 15  1 -> 11  2 -> 9  4 -> 14  ], output grants = [ 9 -> 2  11 -> 1  14 -> 4  15 -> 0  ].
7 | network_0/router_level3_1 | Assigning output 9.0 to VC 0 at input 2.0.
7 | network_0/router_level3_1 | Completed switch allocation for VC 0 at input 2 (front: 10).
7 | network_0/router_level3_1 |   Scheduling switch connection from input 2.0 to output 9.0.
7 | network_0/router_level3_1 | Updating lookahead routing information for flit 10.
7 | network_0/network_0_fchan_20483 | Completed channel traversal for flit 6.
8 | network_0/router_level2_3 | Received flit 6 from channel at input 0.
8 | network_0/router_level2_1 | Beginning crossbar traversal for flit 9 from input 1.0 to output 15.0.
8 | network_0/router_level2_1 | Completed crossbar traversal for flit 9 from input 1.0 to output 15.0.
8 | network_0/router_level2_1 | Buffering flit 9 at output 15.
8 | network_0/router_level2_2 | Beginning crossbar traversal for flit 7 from input 0.0 to output 15.0.
8 | network_0/router_level2_2 | Beginning crossbar traversal for flit 8 from input 1.0 to output 14.0.
8 | network_0/router_level2_2 | Completed crossbar traversal for flit 7 from input 0.0 to output 15.0.
8 | network_0/router_level2_2 | Buffering flit 7 at output 15.
8 | network_0/router_level2_2 | Completed crossbar traversal for flit 8 from input 1.0 to output 14.0.
8 | network_0/router_level2_2 | Buffering flit 8 at output 14.
8 | network_0/router_level2_3 | Adding flit 6 to VC 1 at input 0 (state: idle, empty).
8 | network_0/router_level2_3 | Using precomputed lookahead routing information for VC 1 at input 0 (front: 6).
8 | network_0/router_level2_3/buf_0/vc_1 | Changing state from idle to vc_alloc.
8 | network_0/router_level2_3 | Beginning VC allocation for VC 1 at input 0 (front: 6).
8 | network_0/router_level2_3 |   Requesting VC 0 at output 10 (in_pri: 0, out_pri: 0).
8 | network_0/router_level2_3 |   Requesting VC 1 at output 10 (in_pri: 0, out_pri: 0).
8 | network_0/router_level2_3 |   Requesting VC 2 at output 10 (in_pri: 0, out_pri: 0).
8 | network_0/router_level2_3 |   Requesting VC 3 at output 10 (in_pri: 0, out_pri: 0).
8 | network_0/router_level2_3/vc_allocator | Input requests = [ 1 -> [ 40@0 41@0 42@0 43@0 ]  8 -> [ 36@0 37@0 38@0 39@0 ]  13 -> [ 44@0 46@0 47@0 ]  20 -> [ 52@0 54@0 55@0 ]  24 -> [ 49@0 50@0 51@0 ]  25 -> [ 49@0 50@0 51@0 ]  28 -> [ 49@0 50@0 51@0 ]  ], output requests = [ 36 -> [ 8@0 ]  37 -> [ 8@0 ]  38 -> [ 8@0 ]  39 -> [ 8@0 ]  40 -> [ 1@0 ]  41 -> [ 1@0 ]  42 -> [ 1@0 ]  43 -> [ 1@0 ]  44 -> [ 13@0 ]  46 -> [ 13@0 ]  47 -> [ 13@0 ]  49 -> [ 24@0 25@0 28@0 ]  50 -> [ 24@0 25@0 28@0 ]  51 -> [ 24@0 25@0 28@0 ]  52 -> [ 20@0 ]  54 -> [ 20@0 ]  55 -> [ 20@0 ]  ].
8 | network_0/router_level2_3/vc_allocator | Input grants = [ 1 -> 40  8 -> 36  13 -> 44  20 -> 52  24 -> 49  ], output grants = [ 36 -> 8  40 -> 1  44 -> 13  49 -> 24  52 -> 20  ].
8 | network_0/router_level2_3 | Assigning VC 0 at output 10 to VC 1 at input 0.
8 | network_0/router_level2_3 | Beginning crossbar traversal for flit 3 from input 0.0 to output 8.0.
8 | network_0/router_level2_3 | Completed VC allocation for VC 1 at input 0 (front: 6).
8 | network_0/router_level2_3 |   Acquiring assigned VC 0 at output 10.
8 | network_0/router_level2_3/buf_0/vc_1 | Changing state from vc_alloc to active.
8 | network_0/router_level2_3 | Completed crossbar traversal for flit 3 from input 0.0 to output 8.0.
8 | network_0/router_level2_3 | Buffering flit 3 at output 8.
8 | network_0/router_level2_5 | Beginning crossbar traversal for flit 1 from input 0.0 to output 12.0.
8 | network_0/router_level2_5 | Completed crossbar traversal for flit 1 from input 0.0 to output 12.0.
8 | network_0/router_level2_5 | Buffering flit 1 at output 12.
8 | network_0/router_level2_6 | Beginning crossbar traversal for flit 2 from input 0.0 to output 12.0.
8 | network_0/router_level2_6 | Completed crossbar traversal for flit 2 from input 0.0 to output 12.0.
8 | network_0/router_level2_6 | Buffering flit 2 at output 12.
8 | network_0/router_level2_7 | Beginning crossbar traversal for flit 5 from input 0.0 to output 13.0.
8 | network_0/router_level2_7 | Completed crossbar traversal for flit 5 from input 0.0 to output 13.0.
8 | network_0/router_level2_7 | Buffering flit 5 at output 13.
8 | network_0/router_level3_0 | Beginning switch allocation for VC 0 at input 4 (front: 4).
8 | network_0/router_level3_0 |   Requesting output 14.0 (non-spec, pri: 0).
8 | network_0/router_level3_0/sw_allocator | Input requests = [ 0 -> [ 11@0 ]  1 -> [ 10@0 12@0 ]  4 -> [ 9@0 14@0 ]  5 -> [ 15@0 ]  6 -> [ 8@0 9@0 ]  7 -> [ 8@0 10@0 14@0 15@0 ]  ], output requests = [ 8 -> [ 6@0 7@0 ]  9 -> [ 4@0 6@0 ]  10 -> [ 1@0 7@0 ]  11 -> [ 0@0 ]  12 -> [ 1@0 ]  14 -> [ 4@0 7@0 ]  15 -> [ 5@0 7@0 ]  ].
8 | network_0/router_level3_0/sw_allocator | Input grants = [ 0 -> 11  1 -> 10  4 -> 14  5 -> 15  6 -> 9  ], output grants = [ 9 -> 6  10 -> 1  11 -> 0  14 -> 4  15 -> 5  ].
8 | network_0/router_level3_0 | Assigning output 14.0 to VC 0 at input 4.0.
8 | network_0/router_level3_0 | Completed switch allocation for VC 0 at input 4 (front: 4).
8 | network_0/router_level3_0 |   Scheduling switch connection from input 4.0 to output 14.0.
8 | network_0/router_level3_0 | Updating lookahead routing information for flit 4.
8 | network_0/router_level3_1 | Beginning crossbar traversal for flit 10 from input 2.0 to output 9.0.
8 | network_0/router_level3_1 | Completed crossbar traversal for flit 10 from input 2.0 to output 9.0.
8 | network_0/router_level3_1 | Buffering flit 10 at output 9.
8 | network_0/router_level2_1 | Sending flit 9 to channel at output 15.
8 | network_0/router_level2_2 | Sending flit 8 to channel at output 14.
8 | network_0/router_level2_2 | Sending flit 7 to channel at output 15.
8 | network_0/router_level2_3 | Sending flit 3 to channel at output 8.
8 | network_0/router_level2_5 | Sending flit 1 to channel at output 12.
8 | network_0/router_level2_6 | Sending flit 2 to channel at output 12.
8 | network_0/router_level2_7 | Sending flit 5 to channel at output 13.
8 | network_0/router_level3_1 | Sending flit 10 to channel at output 9.
9 | network_0/network_0_fchan_12303 | Beginning channel traversal for flit 9 with delay 1.
9 | network_0/network_0_fchan_12310 | Beginning channel traversal for flit 8 with delay 1.
9 | network_0/network_0_fchan_12311 | Beginning channel traversal for flit 7 with delay 1.
9 | network_0/network_0_fchan_12312 | Beginning channel traversal for flit 3 with delay 1.
9 | network_0/network_0_fchan_12332 | Beginning channel traversal for flit 1 with delay 1.
9 | network_0/network_0_fchan_12340 | Beginning channel traversal for flit 2 with delay 1.
9 | network_0/network_0_fchan_12349 | Beginning channel traversal for flit 5 with delay 1.
9 | network_0/network_0_fchan_20489 | Beginning channel traversal for flit 10 with delay 1.
9 | network_0/router_level2_3 | Beginning switch allocation for VC 1 at input 0 (front: 6).
9 | network_0/router_level2_3 |   Requesting output 10.0 (non-spec, pri: 0).
9 | network_0/router_level2_3/sw_allocator | Input requests = [ 0 -> [ 10@0 ]  2 -> [ 9@0 ]  3 -> [ 11@0 ]  5 -> [ 13@0 ]  6 -> [ 12@0 ]  ], output requests = [ 9 -> [ 2@0 ]  10 -> [ 0@0 ]  11 -> [ 3@0 ]  12 -> [ 6@0 ]  13 -> [ 5@0 ]  ].
9 | network_0/router_level2_3/sw_allocator | Input grants = [ 0 -> 10  2 -> 9  3 -> 11  5 -> 13  6 -> 12  ], output grants = [ 9 -> 2  10 -> 0  11 -> 3  12 -> 6  13 -> 5  ].
9 | network_0/router_level2_3 | Assigning output 10.0 to VC 1 at input 0.0.
9 | network_0/router_level2_3 | Completed switch allocation for VC 1 at input 0 (front: 6).
9 | network_0/router_level2_3 |   Scheduling switch connection from input 0.0 to output 10.0.
9 | network_0/router_level2_3 | Updating lookahead routing information for flit 6.
9 | network_0/router_level3_0 | Beginning crossbar traversal for flit 4 from input 4.0 to output 14.0.
9 | network_0/router_level3_0 | Completed crossbar traversal for flit 4 from input 4.0 to output 14.0.
9 | network_0/router_level3_0 | Buffering flit 4 at output 14.
9 | network_0/network_0_fchan_12303 | Completed channel traversal for flit 9.
9 | network_0/network_0_fchan_12310 | Completed channel traversal for flit 8.
9 | network_0/network_0_fchan_12311 | Completed channel traversal for flit 7.
9 | network_0/network_0_fchan_12312 | Completed channel traversal for flit 3.
9 | network_0/network_0_fchan_12332 | Completed channel traversal for flit 1.
9 | network_0/network_0_fchan_12340 | Completed channel traversal for flit 2.
9 | network_0/network_0_fchan_12349 | Completed channel traversal for flit 5.
9 | network_0/network_0_fchan_20489 | Completed channel traversal for flit 10.
9 | network_0/router_level3_0 | Sending flit 4 to channel at output 14.
10 | network_0/network_0_fchan_20486 | Beginning channel traversal for flit 4 with delay 1.
10 | network_0/router_level1_3 | Received flit 3 from channel at input 0.
10 | network_0/router_level1_37 | Received flit 1 from channel at input 0.
10 | network_0/router_level1_38 | Received flit 2 from channel at input 0.
10 | network_0/router_level1_47 | Received flit 5 from channel at input 0.
10 | network_0/router_level1_50 | Received flit 8 from channel at input 0.
10 | network_0/router_level1_57 | Received flit 9 from channel at input 0.
10 | network_0/router_level1_58 | Received flit 7 from channel at input 0.
10 | network_0/router_level2_1 | Received flit 10 from channel at input 1.
10 | network_0/router_level1_3 | Adding flit 3 to VC 0 at input 0 (state: idle, empty).
10 | network_0/router_level1_3 | Using precomputed lookahead routing information for VC 0 at input 0 (front: 3).
10 | network_0/router_level1_3/buf_0/vc_0 | Changing state from idle to vc_alloc.
10 | network_0/router_level1_3 | Beginning VC allocation for VC 0 at input 0 (front: 3).
10 | network_0/router_level1_3 |   Requesting VC 0 at output 8 (in_pri: 0, out_pri: 0).
10 | network_0/router_level1_3 |   Requesting VC 1 at output 8 (in_pri: 0, out_pri: 0).
10 | network_0/router_level1_3 |   Requesting VC 2 at output 8 (in_pri: 0, out_pri: 0).
10 | network_0/router_level1_3 |   Requesting VC 3 at output 8 (in_pri: 0, out_pri: 0).
10 | network_0/router_level1_3/vc_allocator | Input requests = [ 0 -> [ 32@0 33@0 34@0 35@0 ]  12 -> [ 36@0 37@0 38@0 39@0 ]  24 -> [ 40@0 41@0 42@0 43@0 ]  28 -> [ 32@0 33@0 34@0 35@0 ]  ], output requests = [ 32 -> [ 0@0 28@0 ]  33 -> [ 0@0 28@0 ]  34 -> [ 0@0 28@0 ]  35 -> [ 0@0 28@0 ]  36 -> [ 12@0 ]  37 -> [ 12@0 ]  38 -> [ 12@0 ]  39 -> [ 12@0 ]  40 -> [ 24@0 ]  41 -> [ 24@0 ]  42 -> [ 24@0 ]  43 -> [ 24@0 ]  ].
10 | network_0/router_level1_3/vc_allocator | Input grants = [ 0 -> 32  12 -> 36  24 -> 40  ], output grants = [ 32 -> 0  36 -> 12  40 -> 24  ].
10 | network_0/router_level1_3 | Assigning VC 0 at output 8 to VC 0 at input 0.
10 | network_0/router_level1_3 | Completed VC allocation for VC 0 at input 0 (front: 3).
10 | network_0/router_level1_3 |   Acquiring assigned VC 0 at output 8.
10 | network_0/router_level1_3/buf_0/vc_0 | Changing state from vc_alloc to active.
10 | network_0/router_level1_37 | Adding flit 1 to VC 0 at input 0 (state: idle, empty).
10 | network_0/router_level1_37 | Using precomputed lookahead routing information for VC 0 at input 0 (front: 1).
10 | network_0/router_level1_37/buf_0/vc_0 | Changing state from idle to vc_alloc.
10 | network_0/router_level1_37 | Beginning VC allocation for VC 0 at input 0 (front: 1).
10 | network_0/router_level1_37 |   Requesting VC 0 at output 9 (in_pri: 0, out_pri: 0).
10 | network_0/router_level1_37 |   Requesting VC 1 at output 9 (in_pri: 0, out_pri: 0).
10 | network_0/router_level1_37 |   Requesting VC 2 at output 9 (in_pri: 0, out_pri: 0).
10 | network_0/router_level1_37 |   Requesting VC 3 at output 9 (in_pri: 0, out_pri: 0).
10 | network_0/router_level1_37/vc_allocator | Input requests = [ 0 -> [ 36@0 37@0 38@0 39@0 ]  12 -> [ 32@0 33@0 34@0 35@0 ]  20 -> [ 32@0 33@0 34@0 35@0 ]  ], output requests = [ 32 -> [ 12@0 20@0 ]  33 -> [ 12@0 20@0 ]  34 -> [ 12@0 20@0 ]  35 -> [ 12@0 20@0 ]  36 -> [ 0@0 ]  37 -> [ 0@0 ]  38 -> [ 0@0 ]  39 -> [ 0@0 ]  ].
10 | network_0/router_level1_37/vc_allocator | Input grants = [ 0 -> 36  12 -> 32  ], output grants = [ 32 -> 12  36 -> 0  ].
10 | network_0/router_level1_37 | Assigning VC 0 at output 9 to VC 0 at input 0.
10 | network_0/router_level1_37 | Completed VC allocation for VC 0 at input 0 (front: 1).
10 | network_0/router_level1_37 |   Acquiring assigned VC 0 at output 9.
10 | network_0/router_level1_37/buf_0/vc_0 | Changing state from vc_alloc to active.
10 | network_0/router_level1_38 | Adding flit 2 to VC 0 at input 0 (state: idle, empty).
10 | network_0/router_level1_38 | Using precomputed lookahead routing information for VC 0 at input 0 (front: 2).
10 | network_0/router_level1_38/buf_0/vc_0 | Changing state from idle to vc_alloc.
10 | network_0/router_level1_38 | Beginning VC allocation for VC 0 at input 0 (front: 2).
10 | network_0/router_level1_38 |   Requesting VC 0 at output 9 (in_pri: 0, out_pri: 0).
10 | network_0/router_level1_38 |   Requesting VC 1 at output 9 (in_pri: 0, out_pri: 0).
10 | network_0/router_level1_38 |   Requesting VC 2 at output 9 (in_pri: 0, out_pri: 0).
10 | network_0/router_level1_38 |   Requesting VC 3 at output 9 (in_pri: 0, out_pri: 0).
10 | network_0/router_level1_38/vc_allocator | Input requests = [ 0 -> [ 36@0 37@0 38@0 39@0 ]  16 -> [ 32@0 33@0 34@0 35@0 ]  24 -> [ 44@0 45@0 46@0 47@0 ]  28 -> [ 32@0 33@0 34@0 35@0 ]  ], output requests = [ 32 -> [ 16@0 28@0 ]  33 -> [ 16@0 28@0 ]  34 -> [ 16@0 28@0 ]  35 -> [ 16@0 28@0 ]  36 -> [ 0@0 ]  37 -> [ 0@0 ]  38 -> [ 0@0 ]  39 -> [ 0@0 ]  44 -> [ 24@0 ]  45 -> [ 24@0 ]  46 -> [ 24@0 ]  47 -> [ 24@0 ]  ].
10 | network_0/router_level1_38/vc_allocator | Input grants = [ 0 -> 36  16 -> 32  24 -> 44  ], output grants = [ 32 -> 16  36 -> 0  44 -> 24  ].
10 | network_0/router_level1_38 | Assigning VC 0 at output 9 to VC 0 at input 0.
10 | network_0/router_level1_38 | Completed VC allocation for VC 0 at input 0 (front: 2).
10 | network_0/router_level1_38 |   Acquiring assigned VC 0 at output 9.
10 | network_0/router_level1_38/buf_0/vc_0 | Changing state from vc_alloc to active.
10 | network_0/router_level1_47 | Adding flit 5 to VC 0 at input 0 (state: idle, empty).
10 | network_0/router_level1_47 | Using precomputed lookahead routing information for VC 0 at input 0 (front: 5).
10 | network_0/router_level1_47/buf_0/vc_0 | Changing state from idle to vc_alloc.
10 | network_0/router_level1_47 | Beginning VC allocation for VC 0 at input 0 (front: 5).
10 | network_0/router_level1_47 |   Requesting VC 0 at output 10 (in_pri: 0, out_pri: 0).
10 | network_0/router_level1_47 |   Requesting VC 1 at output 10 (in_pri: 0, out_pri: 0).
10 | network_0/router_level1_47 |   Requesting VC 2 at output 10 (in_pri: 0, out_pri: 0).
10 | network_0/router_level1_47 |   Requesting VC 3 at output 10 (in_pri: 0, out_pri: 0).
10 | network_0/router_level1_47/vc_allocator | Input requests = [ 0 -> [ 40@0 41@0 42@0 43@0 ]  8 -> [ 36@0 37@0 38@0 39@0 ]  20 -> [ 32@0 33@0 34@0 35@0 ]  ], output requests = [ 32 -> [ 20@0 ]  33 -> [ 20@0 ]  34 -> [ 20@0 ]  35 -> [ 20@0 ]  36 -> [ 8@0 ]  37 -> [ 8@0 ]  38 -> [ 8@0 ]  39 -> [ 8@0 ]  40 -> [ 0@0 ]  41 -> [ 0@0 ]  42 -> [ 0@0 ]  43 -> [ 0@0 ]  ].
10 | network_0/router_level1_47/vc_allocator | Input grants = [ 0 -> 40  8 -> 36  20 -> 32  ], output grants = [ 32 -> 20  36 -> 8  40 -> 0  ].
10 | network_0/router_level1_47 | Assigning VC 0 at output 10 to VC 0 at input 0.
10 | network_0/router_level1_47 | Completed VC allocation for VC 0 at input 0 (front: 5).
10 | network_0/router_level1_47 |   Acquiring assigned VC 0 at output 10.
10 | network_0/router_level1_47/buf_0/vc_0 | Changing state from vc_alloc to active.
10 | network_0/router_level1_50 | Adding flit 8 to VC 0 at input 0 (state: idle, empty).
10 | network_0/router_level1_50 | Using precomputed lookahead routing information for VC 0 at input 0 (front: 8).
10 | network_0/router_level1_50/buf_0/vc_0 | Changing state from idle to vc_alloc.
10 | network_0/router_level1_50 | Beginning VC allocation for VC 0 at input 0 (front: 8).
10 | network_0/router_level1_50 |   Requesting VC 0 at output 10 (in_pri: 0, out_pri: 0).
10 | network_0/router_level1_50 |   Requesting VC 1 at output 10 (in_pri: 0, out_pri: 0).
10 | network_0/router_level1_50 |   Requesting VC 2 at output 10 (in_pri: 0, out_pri: 0).
10 | network_0/router_level1_50 |   Requesting VC 3 at output 10 (in_pri: 0, out_pri: 0).
10 | network_0/router_level1_50/vc_allocator | Input requests = [ 0 -> [ 40@0 41@0 42@0 43@0 ]  4 -> [ 40@0 41@0 42@0 43@0 ]  8 -> [ 40@0 41@0 42@0 43@0 ]  12 -> [ 40@0 41@0 42@0 43@0 ]  16 -> [ 44@0 45@0 46@0 47@0 ]  24 -> [ 44@0 45@0 46@0 47@0 ]  28 -> [ 40@0 41@0 42@0 43@0 ]  ], output requests = [ 40 -> [ 0@0 4@0 8@0 12@0 28@0 ]  41 -> [ 0@0 4@0 8@0 12@0 28@0 ]  42 -> [ 0@0 4@0 8@0 12@0 28@0 ]  43 -> [ 0@0 4@0 8@0 12@0 28@0 ]  44 -> [ 16@0 24@0 ]  45 -> [ 16@0 24@0 ]  46 -> [ 16@0 24@0 ]  47 -> [ 16@0 24@0 ]  ].
10 | network_0/router_level1_50/vc_allocator | Input grants = [ 0 -> 40  16 -> 44  ], output grants = [ 40 -> 0  44 -> 16  ].
10 | network_0/router_level1_50 | Assigning VC 0 at output 10 to VC 0 at input 0.
10 | network_0/router_level1_50 | Completed VC allocation for VC 0 at input 0 (front: 8).
10 | network_0/router_level1_50 |   Acquiring assigned VC 0 at output 10.
10 | network_0/router_level1_50/buf_0/vc_0 | Changing state from vc_alloc to active.
10 | network_0/router_level1_57 | Adding flit 9 to VC 0 at input 0 (state: idle, empty).
10 | network_0/router_level1_57 | Using precomputed lookahead routing information for VC 0 at input 0 (front: 9).
10 | network_0/router_level1_57/buf_0/vc_0 | Changing state from idle to vc_alloc.
10 | network_0/router_level1_57 | Beginning VC allocation for VC 0 at input 0 (front: 9).
10 | network_0/router_level1_57 |   Requesting VC 0 at output 7 (in_pri: 0, out_pri: 0).
10 | network_0/router_level1_57 |   Requesting VC 1 at output 7 (in_pri: 0, out_pri: 0).
10 | network_0/router_level1_57 |   Requesting VC 2 at output 7 (in_pri: 0, out_pri: 0).
10 | network_0/router_level1_57 |   Requesting VC 3 at output 7 (in_pri: 0, out_pri: 0).
10 | network_0/router_level1_57/vc_allocator | Input requests = [ 0 -> [ 28@0 29@0 30@0 31@0 ]  4 -> [ 32@0 33@0 34@0 35@0 ]  12 -> [ 24@0 25@0 26@0 27@0 ]  16 -> [ 44@0 45@0 46@0 47@0 ]  24 -> [ 40@0 41@0 42@0 43@0 ]  28 -> [ 36@0 37@0 38@0 39@0 ]  ], output requests = [ 24 -> [ 12@0 ]  25 -> [ 12@0 ]  26 -> [ 12@0 ]  27 -> [ 12@0 ]  28 -> [ 0@0 ]  29 -> [ 0@0 ]  30 -> [ 0@0 ]  31 -> [ 0@0 ]  32 -> [ 4@0 ]  33 -> [ 4@0 ]  34 -> [ 4@0 ]  35 -> [ 4@0 ]  36 -> [ 28@0 ]  37 -> [ 28@0 ]  38 -> [ 28@0 ]  39 -> [ 28@0 ]  40 -> [ 24@0 ]  41 -> [ 24@0 ]  42 -> [ 24@0 ]  43 -> [ 24@0 ]  44 -> [ 16@0 ]  45 -> [ 16@0 ]  46 -> [ 16@0 ]  47 -> [ 16@0 ]  ].
10 | network_0/router_level1_57/vc_allocator | Input grants = [ 0 -> 28  4 -> 32  12 -> 24  16 -> 44  24 -> 40  28 -> 36  ], output grants = [ 24 -> 12  28 -> 0  32 -> 4  36 -> 28  40 -> 24  44 -> 16  ].
10 | network_0/router_level1_57 | Assigning VC 0 at output 7 to VC 0 at input 0.
10 | network_0/router_level1_57 | Completed VC allocation for VC 0 at input 0 (front: 9).
10 | network_0/router_level1_57 |   Acquiring assigned VC 0 at output 7.
10 | network_0/router_level1_57/buf_0/vc_0 | Changing state from vc_alloc to active.
10 | network_0/router_level1_58 | Adding flit 7 to VC 0 at input 0 (state: idle, empty).
10 | network_0/router_level1_58 | Using precomputed lookahead routing information for VC 0 at input 0 (front: 7).
10 | network_0/router_level1_58/buf_0/vc_0 | Changing state from idle to vc_alloc.
10 | network_0/router_level1_58 | Beginning VC allocation for VC 0 at input 0 (front: 7).
10 | network_0/router_level1_58 |   Requesting VC 0 at output 10 (in_pri: 0, out_pri: 0).
10 | network_0/router_level1_58 |   Requesting VC 1 at output 10 (in_pri: 0, out_pri: 0).
10 | network_0/router_level1_58 |   Requesting VC 2 at output 10 (in_pri: 0, out_pri: 0).
10 | network_0/router_level1_58 |   Requesting VC 3 at output 10 (in_pri: 0, out_pri: 0).
[...]
32 | network_0/router_level3_171 | Beginning switch allocation for VC 0 at input 11 (front: 6).
32 | network_0/router_level3_171 |   Requesting output 2.0 (non-spec, pri: 0).
32 | network_0/router_level3_171/sw_allocator | Input requests = [ 0 -> [ 14@0 ]  1 -> [ 9@0 11@0 13@0 ]  2 -> [ 8@0 ]  3 -> [ 9@0 10@0 11@0 ]  4 -> [ 10@0 ]  5 -> [ 8@0 12@0 ]  6 -> [ 11@0 12@0 ]  7 -> [ 10@0 14@0 ]  11 -> [ 2@0 ]  ], output requests = [ 2 -> [ 11@0 ]  8 -> [ 2@0 5@0 ]  9 -> [ 1@0 3@0 ]  10 -> [ 3@0 4@0 7@0 ]  11 -> [ 1@0 3@0 6@0 ]  12 -> [ 5@0 6@0 ]  13 -> [ 1@0 ]  14 -> [ 0@0 7@0 ]  ].
32 | network_0/router_level3_171/sw_allocator | Input grants = [ 1 -> 11  2 -> 8  3 -> 10  7 -> 14  11 -> 2  ], output grants = [ 2 -> 11  8 -> 2  10 -> 3  11 -> 1  14 -> 7  ].
32 | network_0/router_level3_171 | Assigning output 2.0 to VC 0 at input 11.0.
32 | network_0/router_level3_171 | Completed switch allocation for VC 0 at input 11 (front: 6).
32 | network_0/router_level3_171 |   Scheduling switch connection from input 11.0 to output 2.0.
32 | network_0/network_0_fchan_egress1795 | Completed channel traversal for flit 8.
32 | network_0/network_0_fchan_10294 | Completed channel traversal for flit 4.
33 | node1795 | Ejecting flit 8 (packet 8) from VC 0.
33 | network_0/router_level2_310 | Received flit 4 from channel at input 8.
33 | node1795 | Injecting credit for VC 0 into subnet 0.
33 | node1795 | Retiring flit 8 (packet 8, src = 8, dest = 1795, hops = 7, flat = 33).
33 | node1795 | Retiring packet 8 (plat = 33, nlat = 33, frag = 0, src = 8, dest = 1795).
33 | network_0/router_level2_129 | Beginning switch allocation for VC 0 at input 12 (front: 10).
33 | network_0/router_level2_129 |   Requesting output 1.0 (non-spec, pri: 0).
33 | network_0/router_level2_129/sw_allocator | Input requests = [ 0 -> [ 9@0 11@0 14@0 ]  1 -> [ 10@0 11@0 14@0 ]  2 -> [ 11@0 ]  3 -> [ 9@0 14@0 ]  4 -> [ 10@0 11@0 ]  5 -> [ 12@0 ]  7 -> [ 9@0 ]  8 -> [ 7@0 ]  12 -> [ 1@0 ]  13 -> [ 3@0 ]  ], output requests = [ 1 -> [ 12@0 ]  3 -> [ 13@0 ]  7 -> [ 8@0 ]  9 -> [ 0@0 3@0 7@0 ]  10 -> [ 1@0 4@0 ]  11 -> [ 0@0 1@0 2@0 4@0 ]  12 -> [ 5@0 ]  14 -> [ 0@0 1@0 3@0 ]  ].
33 | network_0/router_level2_129/sw_allocator | Input grants = [ 2 -> 11  3 -> 14  4 -> 10  5 -> 12  7 -> 9  8 -> 7  12 -> 1  13 -> 3  ], output grants = [ 1 -> 12  3 -> 13  7 -> 8  9 -> 7  10 -> 4  11 -> 2  12 -> 5  14 -> 3  ].
33 | network_0/router_level2_129 | Assigning output 1.0 to VC 0 at input 12.0.
33 | network_0/router_level2_129 | Completed switch allocation for VC 0 at input 12 (front: 10).
33 | network_0/router_level2_129 |   Scheduling switch connection from input 12.0 to output 1.0.
33 | network_0/router_level2_129 | Updating lookahead routing information for flit 10.
33 | network_0/router_level2_310 | Adding flit 4 to VC 1 at input 8 (state: idle, empty).
33 | network_0/router_level2_310 | Using precomputed lookahead routing information for VC 1 at input 8 (front: 4).
33 | network_0/router_level2_310/buf_8/vc_1 | Changing state from idle to vc_alloc.
33 | network_0/router_level2_310 | Beginning VC allocation for VC 1 at input 8 (front: 4).
33 | network_0/router_level2_310 |   Requesting VC 0 at output 1 (in_pri: 0, out_pri: 0).
33 | network_0/router_level2_310 |   Requesting VC 1 at output 1 (in_pri: 0, out_pri: 0).
33 | network_0/router_level2_310 |   Requesting VC 2 at output 1 (in_pri: 0, out_pri: 0).
33 | network_0/router_level2_310 |   Requesting VC 3 at output 1 (in_pri: 0, out_pri: 0).
33 | network_0/router_level2_310/vc_allocator | Input requests = [ 1 -> [ 44@0 45@0 46@0 47@0 ]  2 -> [ 32@0 34@0 35@0 ]  4 -> [ 32@0 34@0 35@0 ]  5 -> [ 56@0 57@0 58@0 59@0 ]  6 -> [ 32@0 34@0 35@0 ]  8 -> [ 40@0 ]  10 -> [ 40@0 ]  19 -> [ 29@0 30@0 31@0 ]  28 -> [ 39@0 ]  31 -> [ 44@0 45@0 46@0 47@0 ]  32 -> [ 2@0 3@0 ]  33 -> [ 4@0 5@0 6@0 7@0 ]  41 -> [ 4@0 5@0 6@0 7@0 ]  44 -> [ 8@0 10@0 11@0 ]  45 -> [ 16@0 17@0 18@0 19@0 ]  49 -> [ 24@0 25@0 26@0 27@0 ]  52 -> [ 8@0 10@0 11@0 ]  53 -> [ 12@0 13@0 14@0 15@0 ]  ], output requests = [ 2 -> [ 32@0 ]  3 -> [ 32@0 ]  4 -> [ 33@0 41@0 ]  5 -> [ 33@0 41@0 ]  6 -> [ 33@0 41@0 ]  7 -> [ 33@0 41@0 ]  8 -> [ 44@0 52@0 ]  10 -> [ 44@0 52@0 ]  11 -> [ 44@0 52@0 ]  12 -> [ 53@0 ]  13 -> [ 53@0 ]  14 -> [ 53@0 ]  15 -> [ 53@0 ]  16 -> [ 45@0 ]  17 -> [ 45@0 ]  18 -> [ 45@0 ]  19 -> [ 45@0 ]  24 -> [ 49@0 ]  25 -> [ 49@0 ]  26 -> [ 49@0 ]  27 -> [ 49@0 ]  29 -> [ 19@0 ]  30 -> [ 19@0 ]  31 -> [ 19@0 ]  32 -> [ 2@0 4@0 6@0 ]  34 -> [ 2@0 4@0 6@0 ]  35 -> [ 2@0 4@0 6@0 ]  39 -> [ 28@0 ]  40 -> [ 8@0 10@0 ]  44 -> [ 1@0 31@0 ]  45 -> [ 1@0 31@0 ]  46 -> [ 1@0 31@0 ]  47 -> [ 1@0 31@0 ]  56 -> [ 5@0 ]  57 -> [ 5@0 ]  58 -> [ 5@0 ]  59 -> [ 5@0 ]  ].
33 | network_0/router_level2_310/vc_allocator | Input grants = [ 2 -> 32  5 -> 56  8 -> 40  19 -> 29  28 -> 39  31 -> 44  32 -> 2  33 -> 4  45 -> 16  49 -> 24  52 -> 8  53 -> 12  ], output grants = [ 2 -> 32  4 -> 33  8 -> 52  12 -> 53  16 -> 45  24 -> 49  29 -> 19  32 -> 2  39 -> 28  40 -> 8  44 -> 31  56 -> 5  ].
33 | network_0/router_level2_310 | Assigning VC 0 at output 1 to VC 1 at input 8.
33 | network_0/router_level2_310 | Completed VC allocation for VC 1 at input 8 (front: 4).
33 | network_0/router_level2_310 |   Acquiring assigned VC 0 at output 1.
33 | network_0/router_level2_310/buf_8/vc_1 | Changing state from vc_alloc to active.
33 | network_0/router_level3_171 | Beginning crossbar traversal for flit 6 from input 11.0 to output 2.0.
33 | network_0/router_level3_171 | Completed crossbar traversal for flit 6 from input 11.0 to output 2.0.
33 | network_0/router_level3_171 | Buffering flit 6 at output 2.
33 | network_0/router_level3_171 | Sending flit 6 to channel at output 2.
34 | network_0/network_0_fchan_egress1370 | Beginning channel traversal for flit 6 with delay 1.
34 | network_0/router_level2_129 | Beginning crossbar traversal for flit 10 from input 12.0 to output 1.0.
34 | network_0/router_level2_129 | Completed crossbar traversal for flit 10 from input 12.0 to output 1.0.
34 | network_0/router_level2_129 | Buffering flit 10 at output 1.
34 | network_0/router_level2_310 | Beginning switch allocation for VC 1 at input 8 (front: 4).
34 | network_0/router_level2_310 |   Requesting output 1.0 (non-spec, pri: 0).
34 | network_0/router_level2_310/sw_allocator | Input requests = [ 0 -> [ 8@0 ]  1 -> [ 14@0 ]  2 -> [ 10@0 ]  4 -> [ 7@0 ]  5 -> [ 9@0 10@0 ]  6 -> [ 8@0 12@0 ]  7 -> [ 9@0 10@0 11@0 ]  8 -> [ 0@0 1@0 ]  11 -> [ 4@0 ]  12 -> [ 0@0 6@0 ]  13 -> [ 2@0 3@0 ]  ], output requests = [ 0 -> [ 8@0 12@0 ]  1 -> [ 8@0 ]  2 -> [ 13@0 ]  3 -> [ 13@0 ]  4 -> [ 11@0 ]  6 -> [ 12@0 ]  7 -> [ 4@0 ]  8 -> [ 0@0 6@0 ]  9 -> [ 5@0 7@0 ]  10 -> [ 2@0 5@0 7@0 ]  11 -> [ 7@0 ]  12 -> [ 6@0 ]  14 -> [ 1@0 ]  ].
34 | network_0/router_level2_310/sw_allocator | Input grants = [ 0 -> 8  1 -> 14  2 -> 10  4 -> 7  5 -> 9  8 -> 0  11 -> 4  12 -> 6  13 -> 2  ], output grants = [ 0 -> 8  2 -> 13  4 -> 11  6 -> 12  7 -> 4  8 -> 0  9 -> 5  10 -> 2  14 -> 1  ].
34 | network_0/router_level2_310 | Switch allocation failed for VC 1 at input 8: Granted to VC 0.
34 | network_0/router_level2_310 | Completed switch allocation for VC 1 at input 8 (front: 4).
34 | network_0/router_level2_310 |   No output port allocated.
34 | network_0/network_0_fchan_egress1370 | Completed channel traversal for flit 6.
34 | network_0/router_level2_129 | Sending flit 10 to channel at output 1.
35 | node1370 | Ejecting flit 6 (packet 6) from VC 2.
35 | network_0/network_0_fchan_17417 | Beginning channel traversal for flit 10 with delay 1.
35 | node1370 | Injecting credit for VC 2 into subnet 0.
35 | node1370 | Retiring flit 6 (packet 6, src = 6, dest = 1370, hops = 7, flat = 35).
35 | node1370 | Retiring packet 6 (plat = 35, nlat = 35, frag = 0, src = 6, dest = 1370).
35 | network_0/router_level2_310 | Beginning switch allocation for VC 1 at input 8 (front: 4).
35 | network_0/router_level2_310 |   Requesting output 1.0 (non-spec, pri: 0).
35 | network_0/router_level2_310/sw_allocator | Input requests = [ 0 -> [ 12@0 ]  1 -> [ 8@0 14@0 ]  2 -> [ 10@0 ]  4 -> [ 11@0 ]  5 -> [ 10@0 ]  6 -> [ 8@0 9@0 12@0 13@0 ]  7 -> [ 9@0 10@0 11@0 ]  8 -> [ 1@0 4@0 ]  10 -> [ 1@0 6@0 ]  11 -> [ 2@0 ]  12 -> [ 0@0 ]  13 -> [ 3@0 ]  ], output requests = [ 0 -> [ 12@0 ]  1 -> [ 8@0 10@0 ]  2 -> [ 11@0 ]  3 -> [ 13@0 ]  4 -> [ 8@0 ]  6 -> [ 10@0 ]  8 -> [ 1@0 6@0 ]  9 -> [ 6@0 7@0 ]  10 -> [ 2@0 5@0 7@0 ]  11 -> [ 4@0 7@0 ]  12 -> [ 0@0 6@0 ]  13 -> [ 6@0 ]  14 -> [ 1@0 ]  ].
35 | network_0/router_level2_310/sw_allocator | Input grants = [ 0 -> 12  1 -> 8  4 -> 11  5 -> 10  6 -> 13  7 -> 9  8 -> 1  10 -> 6  11 -> 2  12 -> 0  13 -> 3  ], output grants = [ 0 -> 12  1 -> 8  2 -> 11  3 -> 13  6 -> 10  8 -> 1  9 -> 7  10 -> 5  11 -> 4  12 -> 0  13 -> 6  ].
35 | network_0/router_level2_310 | Assigning output 1.0 to VC 1 at input 8.0.
35 | network_0/router_level2_310 | Completed switch allocation for VC 1 at input 8 (front: 4).
35 | network_0/router_level2_310 |   Scheduling switch connection from input 8.0 to output 1.0.
35 | network_0/router_level2_310 | Updating lookahead routing information for flit 4.
35 | network_0/network_0_fchan_17417 | Completed channel traversal for flit 10.
36 | network_0/router_level3_129 | Received flit 10 from channel at input 9.
36 | network_0/router_level2_310 | Beginning crossbar traversal for flit 4 from input 8.0 to output 1.0.
36 | network_0/router_level2_310 | Completed crossbar traversal for flit 4 from input 8.0 to output 1.0.
36 | network_0/router_level2_310 | Buffering flit 4 at output 1.
36 | network_0/router_level3_129 | Adding flit 10 to VC 0 at input 9 (state: idle, empty).
36 | network_0/router_level3_129 | Using precomputed lookahead routing information for VC 0 at input 9 (front: 10).
36 | network_0/router_level3_129/buf_9/vc_0 | Changing state from idle to vc_alloc.
36 | network_0/router_level3_129 | Beginning VC allocation for VC 0 at input 9 (front: 10).
36 | network_0/router_level3_129 |   Requesting VC 0 at output 6 (in_pri: 0, out_pri: 0).
36 | network_0/router_level3_129 |   Requesting VC 1 at output 6 (in_pri: 0, out_pri: 0).
36 | network_0/router_level3_129 |   Requesting VC 2 at output 6 (in_pri: 0, out_pri: 0).
36 | network_0/router_level3_129 |   Requesting VC 3 at output 6 (in_pri: 0, out_pri: 0).
36 | network_0/router_level3_129/vc_allocator | Input requests = [ 0 -> [ 56@0 57@0 58@0 59@0 ]  5 -> [ 53@0 ]  7 -> [ 60@0 ]  10 -> [ 53@0 ]  13 -> [ 33@0 34@0 35@0 ]  17 -> [ 45@0 46@0 47@0 ]  20 -> [ 53@0 ]  21 -> [ 53@0 ]  22 -> [ 60@0 ]  23 -> [ 50@0 ]  25 -> [ 56@0 57@0 58@0 59@0 ]  26 -> [ 50@0 ]  28 -> [ 53@0 ]  29 -> [ 36@0 38@0 ]  36 -> [ 24@0 25@0 26@0 27@0 ]  40 -> [ 12@0 13@0 14@0 15@0 ]  52 -> [ 0@0 1@0 2@0 3@0 ]  53 -> [ 24@0 25@0 26@0 27@0 ]  ], output requests = [ 0 -> [ 52@0 ]  1 -> [ 52@0 ]  2 -> [ 52@0 ]  3 -> [ 52@0 ]  12 -> [ 40@0 ]  13 -> [ 40@0 ]  14 -> [ 40@0 ]  15 -> [ 40@0 ]  24 -> [ 36@0 53@0 ]  25 -> [ 36@0 53@0 ]  26 -> [ 36@0 53@0 ]  27 -> [ 36@0 53@0 ]  33 -> [ 13@0 ]  34 -> [ 13@0 ]  35 -> [ 13@0 ]  36 -> [ 29@0 ]  38 -> [ 29@0 ]  45 -> [ 17@0 ]  46 -> [ 17@0 ]  47 -> [ 17@0 ]  50 -> [ 23@0 26@0 ]  53 -> [ 5@0 10@0 20@0 21@0 28@0 ]  56 -> [ 0@0 25@0 ]  57 -> [ 0@0 25@0 ]  58 -> [ 0@0 25@0 ]  59 -> [ 0@0 25@0 ]  60 -> [ 7@0 22@0 ]  ].
36 | network_0/router_level3_129/vc_allocator | Input grants = [ 5 -> 53  13 -> 33  17 -> 45  22 -> 60  23 -> 50  25 -> 56  29 -> 36  36 -> 24  40 -> 12  52 -> 3  ], output grants = [ 3 -> 52  12 -> 40  24 -> 36  33 -> 13  36 -> 29  45 -> 17  50 -> 23  53 -> 5  56 -> 25  60 -> 22  ].
36 | network_0/router_level3_129 | Assigning VC 0 at output 6 to VC 0 at input 9.
36 | network_0/router_level3_129 | Completed VC allocation for VC 0 at input 9 (front: 10).
36 | network_0/router_level3_129 |   Acquiring assigned VC 0 at output 6.
36 | network_0/router_level3_129/buf_9/vc_0 | Changing state from vc_alloc to active.
36 | network_0/router_level2_310 | Sending flit 4 to channel at output 1.
37 | network_0/network_0_fchan_18865 | Beginning channel traversal for flit 4 with delay 1.
37 | network_0/router_level3_129 | Beginning switch allocation for VC 0 at input 9 (front: 10).
37 | network_0/router_level3_129 |   Requesting output 6.0 (non-spec, pri: 0).
37 | network_0/router_level3_129/sw_allocator | Input requests = [ 0 -> [ 10@0 12@0 ]  1 -> [ 12@0 13@0 ]  2 -> [ 12@0 13@0 ]  3 -> [ 8@0 10@0 ]  4 -> [ 11@0 13@0 15@0 ]  5 -> [ 12@0 15@0 ]  6 -> [ 9@0 14@0 ]  7 -> [ 9@0 15@0 ]  9 -> [ 6@0 ]  10 -> [ 3@0 ]  13 -> [ 0@0 ]  ], output requests = [ 0 -> [ 13@0 ]  3 -> [ 10@0 ]  6 -> [ 9@0 ]  8 -> [ 3@0 ]  9 -> [ 6@0 7@0 ]  10 -> [ 0@0 3@0 ]  11 -> [ 4@0 ]  12 -> [ 0@0 1@0 2@0 5@0 ]  13 -> [ 1@0 2@0 4@0 ]  14 -> [ 6@0 ]  15 -> [ 4@0 5@0 7@0 ]  ].
37 | network_0/router_level3_129/sw_allocator | Input grants = [ 0 -> 10  2 -> 12  4 -> 11  6 -> 14  7 -> 9  9 -> 6  10 -> 3  13 -> 0  ], output grants = [ 0 -> 13  3 -> 10  6 -> 9  9 -> 7  10 -> 0  11 -> 4  12 -> 2  14 -> 6  ].
37 | network_0/router_level3_129 | Assigning output 6.0 to VC 0 at input 9.0.
37 | network_0/router_level3_129 | Completed switch allocation for VC 0 at input 9 (front: 10).
37 | network_0/router_level3_129 |   Scheduling switch connection from input 9.0 to output 6.0.
37 | network_0/network_0_fchan_18865 | Completed channel traversal for flit 4.
38 | network_0/router_level3_305 | Received flit 4 from channel at input 14.
38 | network_0/router_level3_129 | Beginning crossbar traversal for flit 10 from input 9.0 to output 6.0.
38 | network_0/router_level3_129 | Completed crossbar traversal for flit 10 from input 9.0 to output 6.0.
38 | network_0/router_level3_129 | Buffering flit 10 at output 6.
38 | network_0/router_level3_305 | Adding flit 4 to VC 0 at input 14 (state: vc_alloc, front: 22364).
38 | network_0/router_level3_129 | Sending flit 10 to channel at output 6.
39 | network_0/network_0_fchan_egress1038 | Beginning channel traversal for flit 10 with delay 1.
39 | network_0/router_level3_305 | Using precomputed lookahead routing information for VC 0 at input 14 (front: 4).
39 | network_0/router_level3_305/buf_14/vc_0 | Changing state from active to vc_alloc.
39 | network_0/network_0_fchan_egress1038 | Completed channel traversal for flit 10.
40 | node1038 | Ejecting flit 10 (packet 10) from VC 0.
40 | node1038 | Injecting credit for VC 0 into subnet 0.
40 | node1038 | Retiring flit 10 (packet 10, src = 10, dest = 1038, hops = 7, flat = 40).
40 | node1038 | Retiring packet 10 (plat = 40, nlat = 40, frag = 0, src = 10, dest = 1038).
40 | network_0/router_level3_305 | Beginning VC allocation for VC 0 at input 14 (front: 4).
40 | network_0/router_level3_305 |   VC 0 at output 0 is in use by VC 1 at input 14 (front flit: 13653).
40 | network_0/router_level3_305 |   Requesting VC 1 at output 0 (in_pri: 0, out_pri: 0).
40 | network_0/router_level3_305 |   Requesting VC 2 at output 0 (in_pri: 0, out_pri: 0).
40 | network_0/router_level3_305 |   Requesting VC 3 at output 0 (in_pri: 0, out_pri: 0).
40 | network_0/router_level3_305/vc_allocator | Input requests = [ 0 -> [ 41@0 ]  6 -> [ 41@0 ]  7 -> [ 57@0 ]  10 -> [ 41@0 ]  16 -> [ 57@0 ]  18 -> [ 41@0 ]  20 -> [ 57@0 ]  21 -> [ 60@0 63@0 ]  26 -> [ 50@0 51@0 ]  29 -> [ 50@0 51@0 ]  33 -> [ 20@0 21@0 22@0 23@0 ]  56 -> [ 1@0 2@0 3@0 ]  ], output requests = [ 1 -> [ 56@0 ]  2 -> [ 56@0 ]  3 -> [ 56@0 ]  20 -> [ 33@0 ]  21 -> [ 33@0 ]  22 -> [ 33@0 ]  23 -> [ 33@0 ]  41 -> [ 0@0 6@0 10@0 18@0 ]  50 -> [ 26@0 29@0 ]  51 -> [ 26@0 29@0 ]  57 -> [ 7@0 16@0 20@0 ]  60 -> [ 21@0 ]  63 -> [ 21@0 ]  ].
40 | network_0/router_level3_305/vc_allocator | Input grants = [ 7 -> 57  10 -> 41  21 -> 60  29 -> 50  33 -> 20  56 -> 1  ], output grants = [ 1 -> 56  20 -> 33  41 -> 10  50 -> 29  57 -> 7  60 -> 21  ].
40 | network_0/router_level3_305 | Assigning VC 1 at output 0 to VC 0 at input 14.
40 | network_0/router_level3_305 | Completed VC allocation for VC 0 at input 14 (front: 4).
40 | network_0/router_level3_305 |   Acquiring assigned VC 1 at output 0.
40 | network_0/router_level3_305/buf_14/vc_0 | Changing state from vc_alloc to active.
41 | network_0/router_level3_305 | Beginning switch allocation for VC 0 at input 14 (front: 4).
41 | network_0/router_level3_305 |   Requesting output 0.0 (non-spec, pri: 0).
41 | network_0/router_level3_305/sw_allocator | Input requests = [ 0 -> [ 13@0 14@0 ]  1 -> [ 14@0 15@0 ]  2 -> [ 10@0 ]  3 -> [ 8@0 9@0 12@0 ]  4 -> [ 11@0 15@0 ]  5 -> [ 10@0 13@0 15@0 ]  6 -> [ 8@0 12@0 ]  7 -> [ 8@0 12@0 14@0 ]  8 -> [ 5@0 ]  12 -> [ 2@0 ]  14 -> [ 0@0 ]  ], output requests = [ 0 -> [ 14@0 ]  2 -> [ 12@0 ]  5 -> [ 8@0 ]  8 -> [ 3@0 6@0 7@0 ]  9 -> [ 3@0 ]  10 -> [ 2@0 5@0 ]  11 -> [ 4@0 ]  12 -> [ 3@0 6@0 7@0 ]  13 -> [ 0@0 5@0 ]  14 -> [ 0@0 1@0 7@0 ]  15 -> [ 1@0 4@0 5@0 ]  ].
41 | network_0/router_level3_305/sw_allocator | Input grants = [ 0 -> 13  1 -> 15  2 -> 10  4 -> 11  6 -> 8  7 -> 12  8 -> 5  12 -> 2  14 -> 0  ], output grants = [ 0 -> 14  2 -> 12  5 -> 8  8 -> 6  10 -> 2  11 -> 4  12 -> 7  13 -> 0  15 -> 1  ].
41 | network_0/router_level3_305 | Assigning output 0.0 to VC 0 at input 14.0.
41 | network_0/router_level3_305 | Completed switch allocation for VC 0 at input 14 (front: 4).
41 | network_0/router_level3_305 |   Scheduling switch connection from input 14.0 to output 0.0.
42 | network_0/router_level3_305 | Beginning crossbar traversal for flit 4 from input 14.0 to output 0.0.
42 | network_0/router_level3_305 | Completed crossbar traversal for flit 4 from input 14.0 to output 0.0.
42 | network_0/router_level3_305 | Buffering flit 4 at output 0.
42 | network_0/router_level3_305 | Sending flit 4 to channel at output 0.
43 | network_0/network_0_fchan_egress2440 | Beginning channel traversal for flit 4 with delay 1.
43 | network_0/network_0_fchan_egress2440 | Completed channel traversal for flit 4.
44 | node2440 | Ejecting flit 4 (packet 4) from VC 1.
44 | node2440 | Injecting credit for VC 1 into subnet 0.
44 | node2440 | Retiring flit 4 (packet 4, src = 4, dest = 2440, hops = 7, flat = 44).
44 | node2440 | Retiring packet 4 (plat = 44, nlat = 44, frag = 0, src = 4, dest = 2440).
Class 0:
Packet latency average = 319.426
	minimum = 6
	maximum = 817
Network latency average = 290.223
	minimum = 6
	maximum = 817
Slowest packet = 732593
Flit latency average = 290.223
	minimum = 6
	maximum = 817
Slowest flit = 732593
Fragmentation average = 0
	minimum = 0
	maximum = 0
Injected packet rate average = 0.554995
	minimum = 0.412 (at node 1062)
	maximum = 0.659 (at node 2472)
Accepted packet rate average = 0.379922
	minimum = 0.313 (at node 1053)
	maximum = 0.466 (at node 185)
Injected flit rate average = 0.554995
	minimum = 0.412 (at node 1062)
	maximum = 0.659 (at node 2472)
Accepted flit rate average= 0.379922
	minimum = 0.313 (at node 1053)
	maximum = 0.466 (at node 185)
Injected packet length average = 1
Accepted packet length average = 1
Total in-flight flits = 719671 (0 measured)
latency change    = 1
throughput change = 1
Class 0:
Packet latency average = 624.458
	minimum = 6
	maximum = 1546
Network latency average = 370.868
	minimum = 6
	maximum = 1369
Slowest packet = 874305
Flit latency average = 370.868
	minimum = 6
	maximum = 1369
Slowest flit = 1605483
Fragmentation average = 0
	minimum = 0
	maximum = 0
Injected packet rate average = 0.466168
	minimum = 0.3125 (at node 608)
	maximum = 0.561 (at node 1715)
Accepted packet rate average = 0.383862
	minimum = 0.335 (at node 2505)
	maximum = 0.428 (at node 2139)
Injected flit rate average = 0.466168
	minimum = 0.3125 (at node 608)
	maximum = 0.561 (at node 1715)
Accepted flit rate average= 0.383862
	minimum = 0.335 (at node 2505)
	maximum = 0.428 (at node 2139)
Injected packet length average = 1
Accepted packet length average = 1
Total in-flight flits = 676793 (0 measured)
latency change    = 0.488475
throughput change = 0.0102636
Average latency for class 0 exceeded 500 cycles. Aborting simulation.
Too many sample periods needed to converge
Simulation unstable, ending ...
Total run time 410.456
