BEGIN Configuration File: examples/fattree_config_0.75_1_bitcomp
// $Id: dragonflyconfig 3555 2011-05-16 23:37:55Z dub $

// Copyright (c) 2007-2015, Trustees of The Leland Stanford Junior University
// All rights reserved.
//
// Redistribution and use in source and binary forms, with or without
// modification, are permitted provided that the following conditions are met:
//
// Redistributions of source code must retain the above copyright notice, this
// list of conditions and the following disclaimer.
// Redistributions in binary form must reproduce the above copyright notice,
// this list of conditions and the following disclaimer in the documentation
// and/or other materials provided with the distribution.
//
// THIS SOFTWARE IS PROVIDED BY THE COPYRIGHT HOLDERS AND CONTRIBUTORS "AS IS"
// AND ANY EXPRESS OR IMPLIED WARRANTIES, INCLUDING, BUT NOT LIMITED TO, THE
// IMPLIED WARRANTIES OF MERCHANTABILITY AND FITNESS FOR A PARTICULAR PURPOSE
// ARE DISCLAIMED. IN NO EVENT SHALL THE COPYRIGHT OWNER OR CONTRIBUTORS BE
// LIABLE FOR ANY DIRECT, INDIRECT, INCIDENTAL, SPECIAL, EXEMPLARY, OR
// CONSEQUENTIAL DAMAGES (INCLUDING, BUT NOT LIMITED TO, PROCUREMENT OF
// SUBSTITUTE GOODS OR SERVICES; LOSS OF USE, DATA, OR PROFITS; OR BUSINESS
// INTERRUPTION) HOWEVER CAUSED AND ON ANY THEORY OF LIABILITY, WHETHER IN
// CONTRACT, STRICT LIABILITY, OR TORT (INCLUDING NEGLIGENCE OR OTHERWISE)
// ARISING IN ANY WAY OUT OF THE USE OF THIS SOFTWARE, EVEN IF ADVISED OF THE
// POSSIBILITY OF SUCH DAMAGE.


hold_switch_for_packet=1;

vc_buf_size = 16;


wait_for_tail_credit = 0;

//
// Router architecture
//
vc_allocator = separable_input_first; 
sw_allocator = separable_input_first;
alloc_iters  = 1;

credit_delay   = 2;
routing_delay  = 0;
vc_alloc_delay = 1;
sw_alloc_delay = 1;
st_final_delay = 1;

input_speedup     = 1;
output_speedup    = 1;
internal_speedup  = 1.0;


warmup_periods = 3;
sim_count          = 1;

sample_period  = 1000;  

routing_function = nca;
num_vcs     = 4;

priority = none;
traffic = bitcomp;


injection_rate = 0.75;
packet_size = 1;
injection_rate_uses_flits=1;

topology = fattree;

k  = 8;
n  = 4;
t = 1;

watch_file = watchfile.txt;
watch_out=-;
stats_out = examples/fattree_config_0.75_1_bitcomp.m;

END Configuration File: examples/fattree_config_0.75_1_bitcomp
Fat Tree
 k = 8 levels = 4
 each switch - total radix =  16
 # of switches = 2048
 # of channels = 24576
 # of nodes ( size of network ) = 4096
 tapering factor = 1
0 | node2 | Enqueuing flit 1 (packet 1) at time 0.
0 | node3 | Enqueuing flit 2 (packet 2) at time 0.
0 | node4 | Enqueuing flit 3 (packet 3) at time 0.
0 | node5 | Enqueuing flit 4 (packet 4) at time 0.
0 | node8 | Enqueuing flit 5 (packet 5) at time 0.
0 | node9 | Enqueuing flit 6 (packet 6) at time 0.
0 | node11 | Enqueuing flit 7 (packet 7) at time 0.
0 | node12 | Enqueuing flit 8 (packet 8) at time 0.
0 | node13 | Enqueuing flit 9 (packet 9) at time 0.
0 | node14 | Enqueuing flit 10 (packet 10) at time 0.
0 | traffic_manager | Finding output VC for flit 1:
0 | traffic_manager |   Selected output VC 0.
0 | node2 | Generating lookahead routing info for flit 1.
0 | node2 | Injecting flit 1 into subnet 0 at time 0 with priority 0.
0 | traffic_manager | Finding output VC for flit 2:
0 | traffic_manager |   Selected output VC 0.
0 | node3 | Generating lookahead routing info for flit 2.
0 | node3 | Injecting flit 2 into subnet 0 at time 0 with priority 0.
0 | traffic_manager | Finding output VC for flit 3:
0 | traffic_manager |   Selected output VC 0.
0 | node4 | Generating lookahead routing info for flit 3.
0 | node4 | Injecting flit 3 into subnet 0 at time 0 with priority 0.
0 | traffic_manager | Finding output VC for flit 4:
0 | traffic_manager |   Selected output VC 0.
0 | node5 | Generating lookahead routing info for flit 4.
0 | node5 | Injecting flit 4 into subnet 0 at time 0 with priority 0.
0 | traffic_manager | Finding output VC for flit 5:
0 | traffic_manager |   Selected output VC 0.
0 | node8 | Generating lookahead routing info for flit 5.
0 | node8 | Injecting flit 5 into subnet 0 at time 0 with priority 0.
0 | traffic_manager | Finding output VC for flit 6:
0 | traffic_manager |   Selected output VC 0.
0 | node9 | Generating lookahead routing info for flit 6.
0 | node9 | Injecting flit 6 into subnet 0 at time 0 with priority 0.
0 | traffic_manager | Finding output VC for flit 7:
0 | traffic_manager |   Selected output VC 0.
0 | node11 | Generating lookahead routing info for flit 7.
0 | node11 | Injecting flit 7 into subnet 0 at time 0 with priority 0.
0 | traffic_manager | Finding output VC for flit 8:
0 | traffic_manager |   Selected output VC 0.
0 | node12 | Generating lookahead routing info for flit 8.
0 | node12 | Injecting flit 8 into subnet 0 at time 0 with priority 0.
0 | traffic_manager | Finding output VC for flit 9:
0 | traffic_manager |   Selected output VC 0.
0 | node13 | Generating lookahead routing info for flit 9.
0 | node13 | Injecting flit 9 into subnet 0 at time 0 with priority 0.
0 | traffic_manager | Finding output VC for flit 10:
0 | traffic_manager |   Selected output VC 0.
0 | node14 | Generating lookahead routing info for flit 10.
0 | node14 | Injecting flit 10 into subnet 0 at time 0 with priority 0.
1 | network_0/network_0_fchan_ingress2 | Beginning channel traversal for flit 1 with delay 1.
1 | network_0/network_0_fchan_ingress3 | Beginning channel traversal for flit 2 with delay 1.
1 | network_0/network_0_fchan_ingress4 | Beginning channel traversal for flit 3 with delay 1.
1 | network_0/network_0_fchan_ingress5 | Beginning channel traversal for flit 4 with delay 1.
1 | network_0/network_0_fchan_ingress8 | Beginning channel traversal for flit 5 with delay 1.
1 | network_0/network_0_fchan_ingress9 | Beginning channel traversal for flit 6 with delay 1.
1 | network_0/network_0_fchan_ingress11 | Beginning channel traversal for flit 7 with delay 1.
1 | network_0/network_0_fchan_ingress12 | Beginning channel traversal for flit 8 with delay 1.
1 | network_0/network_0_fchan_ingress13 | Beginning channel traversal for flit 9 with delay 1.
1 | network_0/network_0_fchan_ingress14 | Beginning channel traversal for flit 10 with delay 1.
1 | network_0/network_0_fchan_ingress2 | Completed channel traversal for flit 1.
1 | network_0/network_0_fchan_ingress3 | Completed channel traversal for flit 2.
1 | network_0/network_0_fchan_ingress4 | Completed channel traversal for flit 3.
1 | network_0/network_0_fchan_ingress5 | Completed channel traversal for flit 4.
1 | network_0/network_0_fchan_ingress8 | Completed channel traversal for flit 5.
1 | network_0/network_0_fchan_ingress9 | Completed channel traversal for flit 6.
1 | network_0/network_0_fchan_ingress11 | Completed channel traversal for flit 7.
1 | network_0/network_0_fchan_ingress12 | Completed channel traversal for flit 8.
1 | network_0/network_0_fchan_ingress13 | Completed channel traversal for flit 9.
1 | network_0/network_0_fchan_ingress14 | Completed channel traversal for flit 10.
2 | network_0/router_level3_0 | Received flit 1 from channel at input 2.
2 | network_0/router_level3_0 | Received flit 2 from channel at input 3.
2 | network_0/router_level3_0 | Received flit 3 from channel at input 4.
2 | network_0/router_level3_0 | Received flit 4 from channel at input 5.
2 | network_0/router_level3_1 | Received flit 5 from channel at input 0.
2 | network_0/router_level3_1 | Received flit 6 from channel at input 1.
2 | network_0/router_level3_1 | Received flit 7 from channel at input 3.
2 | network_0/router_level3_1 | Received flit 8 from channel at input 4.
2 | network_0/router_level3_1 | Received flit 9 from channel at input 5.
2 | network_0/router_level3_1 | Received flit 10 from channel at input 6.
2 | network_0/router_level3_0 | Adding flit 1 to VC 0 at input 2 (state: idle, empty).
2 | network_0/router_level3_0 | Using precomputed lookahead routing information for VC 0 at input 2 (front: 1).
2 | network_0/router_level3_0/buf_2/vc_0 | Changing state from idle to vc_alloc.
2 | network_0/router_level3_0 | Adding flit 2 to VC 0 at input 3 (state: idle, empty).
2 | network_0/router_level3_0 | Using precomputed lookahead routing information for VC 0 at input 3 (front: 2).
2 | network_0/router_level3_0/buf_3/vc_0 | Changing state from idle to vc_alloc.
2 | network_0/router_level3_0 | Adding flit 3 to VC 0 at input 4 (state: idle, empty).
2 | network_0/router_level3_0 | Using precomputed lookahead routing information for VC 0 at input 4 (front: 3).
2 | network_0/router_level3_0/buf_4/vc_0 | Changing state from idle to vc_alloc.
2 | network_0/router_level3_0 | Adding flit 4 to VC 0 at input 5 (state: idle, empty).
2 | network_0/router_level3_0 | Using precomputed lookahead routing information for VC 0 at input 5 (front: 4).
2 | network_0/router_level3_0/buf_5/vc_0 | Changing state from idle to vc_alloc.
2 | network_0/router_level3_0 | Beginning VC allocation for VC 0 at input 2 (front: 1).
2 | network_0/router_level3_0 |   Requesting VC 0 at output 14 (in_pri: 0, out_pri: 0).
2 | network_0/router_level3_0 |   Requesting VC 1 at output 14 (in_pri: 0, out_pri: 0).
2 | network_0/router_level3_0 |   Requesting VC 2 at output 14 (in_pri: 0, out_pri: 0).
2 | network_0/router_level3_0 |   Requesting VC 3 at output 14 (in_pri: 0, out_pri: 0).
2 | network_0/router_level3_0 | Beginning VC allocation for VC 0 at input 3 (front: 2).
2 | network_0/router_level3_0 |   Requesting VC 0 at output 9 (in_pri: 0, out_pri: 0).
2 | network_0/router_level3_0 |   Requesting VC 1 at output 9 (in_pri: 0, out_pri: 0).
2 | network_0/router_level3_0 |   Requesting VC 2 at output 9 (in_pri: 0, out_pri: 0).
2 | network_0/router_level3_0 |   Requesting VC 3 at output 9 (in_pri: 0, out_pri: 0).
2 | network_0/router_level3_0 | Beginning VC allocation for VC 0 at input 4 (front: 3).
2 | network_0/router_level3_0 |   Requesting VC 0 at output 8 (in_pri: 0, out_pri: 0).
2 | network_0/router_level3_0 |   Requesting VC 1 at output 8 (in_pri: 0, out_pri: 0).
2 | network_0/router_level3_0 |   Requesting VC 2 at output 8 (in_pri: 0, out_pri: 0).
2 | network_0/router_level3_0 |   Requesting VC 3 at output 8 (in_pri: 0, out_pri: 0).
2 | network_0/router_level3_0 | Beginning VC allocation for VC 0 at input 5 (front: 4).
2 | network_0/router_level3_0 |   Requesting VC 0 at output 14 (in_pri: 0, out_pri: 0).
2 | network_0/router_level3_0 |   Requesting VC 1 at output 14 (in_pri: 0, out_pri: 0).
2 | network_0/router_level3_0 |   Requesting VC 2 at output 14 (in_pri: 0, out_pri: 0).
2 | network_0/router_level3_0 |   Requesting VC 3 at output 14 (in_pri: 0, out_pri: 0).
2 | network_0/router_level3_0/vc_allocator | Input requests = [ 4 -> [ 60@0 61@0 62@0 63@0 ]  8 -> [ 56@0 57@0 58@0 59@0 ]  12 -> [ 36@0 37@0 38@0 39@0 ]  16 -> [ 32@0 33@0 34@0 35@0 ]  20 -> [ 56@0 57@0 58@0 59@0 ]  ], output requests = [ 32 -> [ 16@0 ]  33 -> [ 16@0 ]  34 -> [ 16@0 ]  35 -> [ 16@0 ]  36 -> [ 12@0 ]  37 -> [ 12@0 ]  38 -> [ 12@0 ]  39 -> [ 12@0 ]  56 -> [ 8@0 20@0 ]  57 -> [ 8@0 20@0 ]  58 -> [ 8@0 20@0 ]  59 -> [ 8@0 20@0 ]  60 -> [ 4@0 ]  61 -> [ 4@0 ]  62 -> [ 4@0 ]  63 -> [ 4@0 ]  ].
2 | network_0/router_level3_0/vc_allocator | Input grants = [ 4 -> 60  8 -> 56  12 -> 36  16 -> 32  ], output grants = [ 32 -> 16  36 -> 12  56 -> 8  60 -> 4  ].
2 | network_0/router_level3_0 | Assigning VC 0 at output 14 to VC 0 at input 2.
2 | network_0/router_level3_0 | Assigning VC 0 at output 9 to VC 0 at input 3.
2 | network_0/router_level3_0 | Assigning VC 0 at output 8 to VC 0 at input 4.
2 | network_0/router_level3_0 | VC allocation failed for VC 0 at input 5.
2 | network_0/router_level3_0 | Completed VC allocation for VC 0 at input 2 (front: 1).
2 | network_0/router_level3_0 |   Acquiring assigned VC 0 at output 14.
2 | network_0/router_level3_0/buf_2/vc_0 | Changing state from vc_alloc to active.
2 | network_0/router_level3_0 | Completed VC allocation for VC 0 at input 3 (front: 2).
2 | network_0/router_level3_0 |   Acquiring assigned VC 0 at output 9.
2 | network_0/router_level3_0/buf_3/vc_0 | Changing state from vc_alloc to active.
2 | network_0/router_level3_0 | Completed VC allocation for VC 0 at input 4 (front: 3).
2 | network_0/router_level3_0 |   Acquiring assigned VC 0 at output 8.
2 | network_0/router_level3_0/buf_4/vc_0 | Changing state from vc_alloc to active.
2 | network_0/router_level3_0 | Completed VC allocation for VC 0 at input 5 (front: 4).
2 | network_0/router_level3_0 |   No output VC allocated.
2 | network_0/router_level3_1 | Adding flit 5 to VC 0 at input 0 (state: idle, empty).
2 | network_0/router_level3_1 | Using precomputed lookahead routing information for VC 0 at input 0 (front: 5).
2 | network_0/router_level3_1/buf_0/vc_0 | Changing state from idle to vc_alloc.
2 | network_0/router_level3_1 | Adding flit 6 to VC 0 at input 1 (state: idle, empty).
2 | network_0/router_level3_1 | Using precomputed lookahead routing information for VC 0 at input 1 (front: 6).
2 | network_0/router_level3_1/buf_1/vc_0 | Changing state from idle to vc_alloc.
2 | network_0/router_level3_1 | Adding flit 7 to VC 0 at input 3 (state: idle, empty).
2 | network_0/router_level3_1 | Using precomputed lookahead routing information for VC 0 at input 3 (front: 7).
2 | network_0/router_level3_1/buf_3/vc_0 | Changing state from idle to vc_alloc.
2 | network_0/router_level3_1 | Adding flit 8 to VC 0 at input 4 (state: idle, empty).
2 | network_0/router_level3_1 | Using precomputed lookahead routing information for VC 0 at input 4 (front: 8).
2 | network_0/router_level3_1/buf_4/vc_0 | Changing state from idle to vc_alloc.
2 | network_0/router_level3_1 | Adding flit 9 to VC 0 at input 5 (state: idle, empty).
2 | network_0/router_level3_1 | Using precomputed lookahead routing information for VC 0 at input 5 (front: 9).
2 | network_0/router_level3_1/buf_5/vc_0 | Changing state from idle to vc_alloc.
2 | network_0/router_level3_1 | Adding flit 10 to VC 0 at input 6 (state: idle, empty).
2 | network_0/router_level3_1 | Using precomputed lookahead routing information for VC 0 at input 6 (front: 10).
2 | network_0/router_level3_1/buf_6/vc_0 | Changing state from idle to vc_alloc.
2 | network_0/router_level3_1 | Beginning VC allocation for VC 0 at input 0 (front: 5).
2 | network_0/router_level3_1 |   Requesting VC 0 at output 15 (in_pri: 0, out_pri: 0).
2 | network_0/router_level3_1 |   Requesting VC 1 at output 15 (in_pri: 0, out_pri: 0).
2 | network_0/router_level3_1 |   Requesting VC 2 at output 15 (in_pri: 0, out_pri: 0).
2 | network_0/router_level3_1 |   Requesting VC 3 at output 15 (in_pri: 0, out_pri: 0).
2 | network_0/router_level3_1 | Beginning VC allocation for VC 0 at input 1 (front: 6).
2 | network_0/router_level3_1 |   Requesting VC 0 at output 9 (in_pri: 0, out_pri: 0).
2 | network_0/router_level3_1 |   Requesting VC 1 at output 9 (in_pri: 0, out_pri: 0).
2 | network_0/router_level3_1 |   Requesting VC 2 at output 9 (in_pri: 0, out_pri: 0).
2 | network_0/router_level3_1 |   Requesting VC 3 at output 9 (in_pri: 0, out_pri: 0).
2 | network_0/router_level3_1 | Beginning VC allocation for VC 0 at input 3 (front: 7).
2 | network_0/router_level3_1 |   Requesting VC 0 at output 14 (in_pri: 0, out_pri: 0).
2 | network_0/router_level3_1 |   Requesting VC 1 at output 14 (in_pri: 0, out_pri: 0).
2 | network_0/router_level3_1 |   Requesting VC 2 at output 14 (in_pri: 0, out_pri: 0).
2 | network_0/router_level3_1 |   Requesting VC 3 at output 14 (in_pri: 0, out_pri: 0).
2 | network_0/router_level3_1 | Beginning VC allocation for VC 0 at input 4 (front: 8).
2 | network_0/router_level3_1 |   Requesting VC 0 at output 8 (in_pri: 0, out_pri: 0).
2 | network_0/router_level3_1 |   Requesting VC 1 at output 8 (in_pri: 0, out_pri: 0).
2 | network_0/router_level3_1 |   Requesting VC 2 at output 8 (in_pri: 0, out_pri: 0).
2 | network_0/router_level3_1 |   Requesting VC 3 at output 8 (in_pri: 0, out_pri: 0).
2 | network_0/router_level3_1 | Beginning VC allocation for VC 0 at input 5 (front: 9).
2 | network_0/router_level3_1 |   Requesting VC 0 at output 13 (in_pri: 0, out_pri: 0).
2 | network_0/router_level3_1 |   Requesting VC 1 at output 13 (in_pri: 0, out_pri: 0).
2 | network_0/router_level3_1 |   Requesting VC 2 at output 13 (in_pri: 0, out_pri: 0).
2 | network_0/router_level3_1 |   Requesting VC 3 at output 13 (in_pri: 0, out_pri: 0).
2 | network_0/router_level3_1 | Beginning VC allocation for VC 0 at input 6 (front: 10).
2 | network_0/router_level3_1 |   Requesting VC 0 at output 10 (in_pri: 0, out_pri: 0).
2 | network_0/router_level3_1 |   Requesting VC 1 at output 10 (in_pri: 0, out_pri: 0).
2 | network_0/router_level3_1 |   Requesting VC 2 at output 10 (in_pri: 0, out_pri: 0).
2 | network_0/router_level3_1 |   Requesting VC 3 at output 10 (in_pri: 0, out_pri: 0).
2 | network_0/router_level3_1/vc_allocator | Input requests = [ 0 -> [ 60@0 61@0 62@0 63@0 ]  4 -> [ 36@0 37@0 38@0 39@0 ]  12 -> [ 56@0 57@0 58@0 59@0 ]  16 -> [ 32@0 33@0 34@0 35@0 ]  20 -> [ 52@0 53@0 54@0 55@0 ]  24 -> [ 40@0 41@0 42@0 43@0 ]  28 -> [ 44@0 45@0 46@0 47@0 ]  ], output requests = [ 32 -> [ 16@0 ]  33 -> [ 16@0 ]  34 -> [ 16@0 ]  35 -> [ 16@0 ]  36 -> [ 4@0 ]  37 -> [ 4@0 ]  38 -> [ 4@0 ]  39 -> [ 4@0 ]  40 -> [ 24@0 ]  41 -> [ 24@0 ]  42 -> [ 24@0 ]  43 -> [ 24@0 ]  44 -> [ 28@0 ]  45 -> [ 28@0 ]  46 -> [ 28@0 ]  47 -> [ 28@0 ]  52 -> [ 20@0 ]  53 -> [ 20@0 ]  54 -> [ 20@0 ]  55 -> [ 20@0 ]  56 -> [ 12@0 ]  57 -> [ 12@0 ]  58 -> [ 12@0 ]  59 -> [ 12@0 ]  60 -> [ 0@0 ]  61 -> [ 0@0 ]  62 -> [ 0@0 ]  63 -> [ 0@0 ]  ].
2 | network_0/router_level3_1/vc_allocator | Input grants = [ 0 -> 60  4 -> 36  12 -> 56  16 -> 32  20 -> 52  24 -> 40  28 -> 44  ], output grants = [ 32 -> 16  36 -> 4  40 -> 24  44 -> 28  52 -> 20  56 -> 12  60 -> 0  ].
2 | network_0/router_level3_1 | Assigning VC 0 at output 15 to VC 0 at input 0.
2 | network_0/router_level3_1 | Assigning VC 0 at output 9 to VC 0 at input 1.
2 | network_0/router_level3_1 | Assigning VC 0 at output 14 to VC 0 at input 3.
2 | network_0/router_level3_1 | Assigning VC 0 at output 8 to VC 0 at input 4.
2 | network_0/router_level3_1 | Assigning VC 0 at output 13 to VC 0 at input 5.
2 | network_0/router_level3_1 | Assigning VC 0 at output 10 to VC 0 at input 6.
2 | network_0/router_level3_1 | Completed VC allocation for VC 0 at input 0 (front: 5).
2 | network_0/router_level3_1 |   Acquiring assigned VC 0 at output 15.
2 | network_0/router_level3_1/buf_0/vc_0 | Changing state from vc_alloc to active.
2 | network_0/router_level3_1 | Completed VC allocation for VC 0 at input 1 (front: 6).
2 | network_0/router_level3_1 |   Acquiring assigned VC 0 at output 9.
2 | network_0/router_level3_1/buf_1/vc_0 | Changing state from vc_alloc to active.
2 | network_0/router_level3_1 | Completed VC allocation for VC 0 at input 3 (front: 7).
2 | network_0/router_level3_1 |   Acquiring assigned VC 0 at output 14.
2 | network_0/router_level3_1/buf_3/vc_0 | Changing state from vc_alloc to active.
2 | network_0/router_level3_1 | Completed VC allocation for VC 0 at input 4 (front: 8).
2 | network_0/router_level3_1 |   Acquiring assigned VC 0 at output 8.
2 | network_0/router_level3_1/buf_4/vc_0 | Changing state from vc_alloc to active.
2 | network_0/router_level3_1 | Completed VC allocation for VC 0 at input 5 (front: 9).
2 | network_0/router_level3_1 |   Acquiring assigned VC 0 at output 13.
2 | network_0/router_level3_1/buf_5/vc_0 | Changing state from vc_alloc to active.
2 | network_0/router_level3_1 | Completed VC allocation for VC 0 at input 6 (front: 10).
2 | network_0/router_level3_1 |   Acquiring assigned VC 0 at output 10.
2 | network_0/router_level3_1/buf_6/vc_0 | Changing state from vc_alloc to active.
3 | network_0/router_level3_0 | Beginning VC allocation for VC 0 at input 5 (front: 4).
3 | network_0/router_level3_0 |   VC 0 at output 14 is in use by VC 0 at input 2 (front flit: 1).
3 | network_0/router_level3_0 |   Requesting VC 1 at output 14 (in_pri: 0, out_pri: 0).
3 | network_0/router_level3_0 |   Requesting VC 2 at output 14 (in_pri: 0, out_pri: 0).
3 | network_0/router_level3_0 |   Requesting VC 3 at output 14 (in_pri: 0, out_pri: 0).
3 | network_0/router_level3_0/vc_allocator | Input requests = [ 0 -> [ 52@0 53@0 54@0 55@0 ]  5 -> [ 61@0 62@0 63@0 ]  9 -> [ 33@0 34@0 35@0 ]  13 -> [ 48@0 49@0 50@0 51@0 ]  17 -> [ 40@0 41@0 42@0 43@0 ]  20 -> [ 57@0 58@0 59@0 ]  21 -> [ 52@0 53@0 54@0 55@0 ]  24 -> [ 40@0 41@0 42@0 43@0 ]  28 -> [ 57@0 58@0 59@0 ]  ], output requests = [ 33 -> [ 9@0 ]  34 -> [ 9@0 ]  35 -> [ 9@0 ]  40 -> [ 17@0 24@0 ]  41 -> [ 17@0 24@0 ]  42 -> [ 17@0 24@0 ]  43 -> [ 17@0 24@0 ]  48 -> [ 13@0 ]  49 -> [ 13@0 ]  50 -> [ 13@0 ]  51 -> [ 13@0 ]  52 -> [ 0@0 21@0 ]  53 -> [ 0@0 21@0 ]  54 -> [ 0@0 21@0 ]  55 -> [ 0@0 21@0 ]  57 -> [ 20@0 28@0 ]  58 -> [ 20@0 28@0 ]  59 -> [ 20@0 28@0 ]  61 -> [ 5@0 ]  62 -> [ 5@0 ]  63 -> [ 5@0 ]  ].
3 | network_0/router_level3_0/vc_allocator | Input grants = [ 0 -> 52  5 -> 61  9 -> 33  13 -> 48  17 -> 40  20 -> 57  ], output grants = [ 33 -> 9  40 -> 17  48 -> 13  52 -> 0  57 -> 20  61 -> 5  ].
3 | network_0/router_level3_0 | Assigning VC 1 at output 14 to VC 0 at input 5.
3 | network_0/router_level3_0 | Beginning switch allocation for VC 0 at input 2 (front: 1).
3 | network_0/router_level3_0 |   Requesting output 14.0 (non-spec, pri: 0).
3 | network_0/router_level3_0 | Beginning switch allocation for VC 0 at input 3 (front: 2).
3 | network_0/router_level3_0 |   Requesting output 9.0 (non-spec, pri: 0).
3 | network_0/router_level3_0 | Beginning switch allocation for VC 0 at input 4 (front: 3).
3 | network_0/router_level3_0 |   Requesting output 8.0 (non-spec, pri: 0).
3 | network_0/router_level3_0/sw_allocator | Input requests = [ 1 -> [ 15@0 ]  2 -> [ 14@0 ]  3 -> [ 9@0 ]  4 -> [ 8@0 ]  ], output requests = [ 8 -> [ 4@0 ]  9 -> [ 3@0 ]  14 -> [ 2@0 ]  15 -> [ 1@0 ]  ].
3 | network_0/router_level3_0/sw_allocator | Input grants = [ 1 -> 15  2 -> 14  3 -> 9  4 -> 8  ], output grants = [ 8 -> 4  9 -> 3  14 -> 2  15 -> 1  ].
3 | network_0/router_level3_0 | Assigning output 14.0 to VC 0 at input 2.0.
3 | network_0/router_level3_0 | Assigning output 9.0 to VC 0 at input 3.0.
3 | network_0/router_level3_0 | Assigning output 8.0 to VC 0 at input 4.0.
3 | network_0/router_level3_0 | Completed VC allocation for VC 0 at input 5 (front: 4).
3 | network_0/router_level3_0 |   Acquiring assigned VC 1 at output 14.
3 | network_0/router_level3_0/buf_5/vc_0 | Changing state from vc_alloc to active.
3 | network_0/router_level3_0 | Completed switch allocation for VC 0 at input 2 (front: 1).
3 | network_0/router_level3_0 |   Scheduling switch connection from input 2.0 to output 14.0.
3 | network_0/router_level3_0 | Updating lookahead routing information for flit 1.
3 | network_0/router_level3_0 | Completed switch allocation for VC 0 at input 3 (front: 2).
3 | network_0/router_level3_0 |   Scheduling switch connection from input 3.0 to output 9.0.
3 | network_0/router_level3_0 | Updating lookahead routing information for flit 2.
3 | network_0/router_level3_0 | Completed switch allocation for VC 0 at input 4 (front: 3).
3 | network_0/router_level3_0 |   Scheduling switch connection from input 4.0 to output 8.0.
3 | network_0/router_level3_0 | Updating lookahead routing information for flit 3.
3 | network_0/router_level3_1 | Beginning switch allocation for VC 0 at input 0 (front: 5).
3 | network_0/router_level3_1 |   Requesting output 15.0 (non-spec, pri: 0).
3 | network_0/router_level3_1 | Beginning switch allocation for VC 0 at input 1 (front: 6).
3 | network_0/router_level3_1 |   Requesting output 9.0 (non-spec, pri: 0).
3 | network_0/router_level3_1 | Beginning switch allocation for VC 0 at input 3 (front: 7).
3 | network_0/router_level3_1 |   Requesting output 14.0 (non-spec, pri: 0).
3 | network_0/router_level3_1 | Beginning switch allocation for VC 0 at input 4 (front: 8).
3 | network_0/router_level3_1 |   Requesting output 8.0 (non-spec, pri: 0).
3 | network_0/router_level3_1 | Beginning switch allocation for VC 0 at input 5 (front: 9).
3 | network_0/router_level3_1 |   Requesting output 13.0 (non-spec, pri: 0).
3 | network_0/router_level3_1 | Beginning switch allocation for VC 0 at input 6 (front: 10).
3 | network_0/router_level3_1 |   Requesting output 10.0 (non-spec, pri: 0).
3 | network_0/router_level3_1/sw_allocator | Input requests = [ 0 -> [ 15@0 ]  1 -> [ 9@0 ]  3 -> [ 14@0 ]  4 -> [ 8@0 ]  5 -> [ 13@0 ]  6 -> [ 10@0 ]  7 -> [ 11@0 ]  ], output requests = [ 8 -> [ 4@0 ]  9 -> [ 1@0 ]  10 -> [ 6@0 ]  11 -> [ 7@0 ]  13 -> [ 5@0 ]  14 -> [ 3@0 ]  15 -> [ 0@0 ]  ].
3 | network_0/router_level3_1/sw_allocator | Input grants = [ 0 -> 15  1 -> 9  3 -> 14  4 -> 8  5 -> 13  6 -> 10  7 -> 11  ], output grants = [ 8 -> 4  9 -> 1  10 -> 6  11 -> 7  13 -> 5  14 -> 3  15 -> 0  ].
3 | network_0/router_level3_1 | Assigning output 15.0 to VC 0 at input 0.0.
3 | network_0/router_level3_1 | Assigning output 9.0 to VC 0 at input 1.0.
3 | network_0/router_level3_1 | Assigning output 14.0 to VC 0 at input 3.0.
3 | network_0/router_level3_1 | Assigning output 8.0 to VC 0 at input 4.0.
3 | network_0/router_level3_1 | Assigning output 13.0 to VC 0 at input 5.0.
3 | network_0/router_level3_1 | Assigning output 10.0 to VC 0 at input 6.0.
3 | network_0/router_level3_1 | Completed switch allocation for VC 0 at input 0 (front: 5).
3 | network_0/router_level3_1 |   Scheduling switch connection from input 0.0 to output 15.0.
3 | network_0/router_level3_1 | Updating lookahead routing information for flit 5.
3 | network_0/router_level3_1 | Completed switch allocation for VC 0 at input 1 (front: 6).
3 | network_0/router_level3_1 |   Scheduling switch connection from input 1.0 to output 9.0.
3 | network_0/router_level3_1 | Updating lookahead routing information for flit 6.
3 | network_0/router_level3_1 | Completed switch allocation for VC 0 at input 3 (front: 7).
3 | network_0/router_level3_1 |   Scheduling switch connection from input 3.0 to output 14.0.
3 | network_0/router_level3_1 | Updating lookahead routing information for flit 7.
3 | network_0/router_level3_1 | Completed switch allocation for VC 0 at input 4 (front: 8).
3 | network_0/router_level3_1 |   Scheduling switch connection from input 4.0 to output 8.0.
3 | network_0/router_level3_1 | Updating lookahead routing information for flit 8.
3 | network_0/router_level3_1 | Completed switch allocation for VC 0 at input 5 (front: 9).
3 | network_0/router_level3_1 |   Scheduling switch connection from input 5.0 to output 13.0.
3 | network_0/router_level3_1 | Updating lookahead routing information for flit 9.
3 | network_0/router_level3_1 | Completed switch allocation for VC 0 at input 6 (front: 10).
3 | network_0/router_level3_1 |   Scheduling switch connection from input 6.0 to output 10.0.
3 | network_0/router_level3_1 | Updating lookahead routing information for flit 10.
4 | network_0/router_level3_0 | Beginning switch allocation for VC 0 at input 5 (front: 4).
4 | network_0/router_level3_0 |   Requesting output 14.0 (non-spec, pri: 0).
4 | network_0/router_level3_0/sw_allocator | Input requests = [ 0 -> [ 13@0 ]  1 -> [ 15@0 ]  2 -> [ 8@0 ]  3 -> [ 12@0 ]  4 -> [ 10@0 ]  5 -> [ 14@0 ]  ], output requests = [ 8 -> [ 2@0 ]  10 -> [ 4@0 ]  12 -> [ 3@0 ]  13 -> [ 0@0 ]  14 -> [ 5@0 ]  15 -> [ 1@0 ]  ].
4 | network_0/router_level3_0/sw_allocator | Input grants = [ 0 -> 13  1 -> 15  2 -> 8  3 -> 12  4 -> 10  5 -> 14  ], output grants = [ 8 -> 2  10 -> 4  12 -> 3  13 -> 0  14 -> 5  15 -> 1  ].
4 | network_0/router_level3_0 | Assigning output 14.0 to VC 0 at input 5.0.
4 | network_0/router_level3_0 | Beginning crossbar traversal for flit 1 from input 2.0 to output 14.0.
4 | network_0/router_level3_0 | Beginning crossbar traversal for flit 2 from input 3.0 to output 9.0.
4 | network_0/router_level3_0 | Beginning crossbar traversal for flit 3 from input 4.0 to output 8.0.
4 | network_0/router_level3_0 | Completed switch allocation for VC 0 at input 5 (front: 4).
4 | network_0/router_level3_0 |   Scheduling switch connection from input 5.0 to output 14.0.
4 | network_0/router_level3_0 | Updating lookahead routing information for flit 4.
4 | network_0/router_level3_0 | Completed crossbar traversal for flit 1 from input 2.0 to output 14.0.
4 | network_0/router_level3_0 | Buffering flit 1 at output 14.
4 | network_0/router_level3_0 | Completed crossbar traversal for flit 2 from input 3.0 to output 9.0.
4 | network_0/router_level3_0 | Buffering flit 2 at output 9.
4 | network_0/router_level3_0 | Completed crossbar traversal for flit 3 from input 4.0 to output 8.0.
4 | network_0/router_level3_0 | Buffering flit 3 at output 8.
4 | network_0/router_level3_1 | Beginning crossbar traversal for flit 5 from input 0.0 to output 15.0.
4 | network_0/router_level3_1 | Beginning crossbar traversal for flit 6 from input 1.0 to output 9.0.
4 | network_0/router_level3_1 | Beginning crossbar traversal for flit 7 from input 3.0 to output 14.0.
4 | network_0/router_level3_1 | Beginning crossbar traversal for flit 8 from input 4.0 to output 8.0.
4 | network_0/router_level3_1 | Beginning crossbar traversal for flit 9 from input 5.0 to output 13.0.
4 | network_0/router_level3_1 | Beginning crossbar traversal for flit 10 from input 6.0 to output 10.0.
4 | network_0/router_level3_1 | Completed crossbar traversal for flit 5 from input 0.0 to output 15.0.
4 | network_0/router_level3_1 | Buffering flit 5 at output 15.
4 | network_0/router_level3_1 | Completed crossbar traversal for flit 6 from input 1.0 to output 9.0.
4 | network_0/router_level3_1 | Buffering flit 6 at output 9.
4 | network_0/router_level3_1 | Completed crossbar traversal for flit 7 from input 3.0 to output 14.0.
4 | network_0/router_level3_1 | Buffering flit 7 at output 14.
4 | network_0/router_level3_1 | Completed crossbar traversal for flit 8 from input 4.0 to output 8.0.
4 | network_0/router_level3_1 | Buffering flit 8 at output 8.
4 | network_0/router_level3_1 | Completed crossbar traversal for flit 9 from input 5.0 to output 13.0.
4 | network_0/router_level3_1 | Buffering flit 9 at output 13.
4 | network_0/router_level3_1 | Completed crossbar traversal for flit 10 from input 6.0 to output 10.0.
4 | network_0/router_level3_1 | Buffering flit 10 at output 10.
4 | network_0/router_level3_0 | Sending flit 3 to channel at output 8.
4 | network_0/router_level3_0 | Sending flit 2 to channel at output 9.
4 | network_0/router_level3_0 | Sending flit 1 to channel at output 14.
4 | network_0/router_level3_1 | Sending flit 8 to channel at output 8.
4 | network_0/router_level3_1 | Sending flit 6 to channel at output 9.
4 | network_0/router_level3_1 | Sending flit 10 to channel at output 10.
4 | network_0/router_level3_1 | Sending flit 9 to channel at output 13.
4 | network_0/router_level3_1 | Sending flit 7 to channel at output 14.
4 | network_0/router_level3_1 | Sending flit 5 to channel at output 15.
5 | network_0/network_0_fchan_20480 | Beginning channel traversal for flit 3 with delay 1.
5 | network_0/network_0_fchan_20481 | Beginning channel traversal for flit 2 with delay 1.
5 | network_0/network_0_fchan_20486 | Beginning channel traversal for flit 1 with delay 1.
5 | network_0/network_0_fchan_20488 | Beginning channel traversal for flit 8 with delay 1.
5 | network_0/network_0_fchan_20489 | Beginning channel traversal for flit 6 with delay 1.
5 | network_0/network_0_fchan_20490 | Beginning channel traversal for flit 10 with delay 1.
5 | network_0/network_0_fchan_20493 | Beginning channel traversal for flit 9 with delay 1.
5 | network_0/network_0_fchan_20494 | Beginning channel traversal for flit 7 with delay 1.
5 | network_0/network_0_fchan_20495 | Beginning channel traversal for flit 5 with delay 1.
5 | network_0/router_level3_0 | Beginning crossbar traversal for flit 4 from input 5.0 to output 14.0.
5 | network_0/router_level3_0 | Completed crossbar traversal for flit 4 from input 5.0 to output 14.0.
5 | network_0/router_level3_0 | Buffering flit 4 at output 14.
5 | network_0/network_0_fchan_20480 | Completed channel traversal for flit 3.
5 | network_0/network_0_fchan_20481 | Completed channel traversal for flit 2.
5 | network_0/network_0_fchan_20486 | Completed channel traversal for flit 1.
5 | network_0/network_0_fchan_20488 | Completed channel traversal for flit 8.
5 | network_0/network_0_fchan_20489 | Completed channel traversal for flit 6.
5 | network_0/network_0_fchan_20490 | Completed channel traversal for flit 10.
5 | network_0/network_0_fchan_20493 | Completed channel traversal for flit 9.
5 | network_0/network_0_fchan_20494 | Completed channel traversal for flit 7.
5 | network_0/network_0_fchan_20495 | Completed channel traversal for flit 5.
5 | network_0/router_level3_0 | Sending flit 4 to channel at output 14.
6 | network_0/network_0_fchan_20486 | Beginning channel traversal for flit 4 with delay 1.
6 | network_0/router_level2_0 | Received flit 3 from channel at input 0.
6 | network_0/router_level2_0 | Received flit 8 from channel at input 1.
6 | network_0/router_level2_1 | Received flit 2 from channel at input 0.
6 | network_0/router_level2_1 | Received flit 6 from channel at input 1.
6 | network_0/router_level2_2 | Received flit 10 from channel at input 1.
6 | network_0/router_level2_5 | Received flit 9 from channel at input 1.
6 | network_0/router_level2_6 | Received flit 1 from channel at input 0.
6 | network_0/router_level2_6 | Received flit 7 from channel at input 1.
6 | network_0/router_level2_7 | Received flit 5 from channel at input 1.
6 | network_0/router_level2_0 | Adding flit 3 to VC 0 at input 0 (state: idle, empty).
6 | network_0/router_level2_0 | Using precomputed lookahead routing information for VC 0 at input 0 (front: 3).
6 | network_0/router_level2_0/buf_0/vc_0 | Changing state from idle to vc_alloc.
6 | network_0/router_level2_0 | Adding flit 8 to VC 0 at input 1 (state: idle, empty).
6 | network_0/router_level2_0 | Using precomputed lookahead routing information for VC 0 at input 1 (front: 8).
6 | network_0/router_level2_0/buf_1/vc_0 | Changing state from idle to vc_alloc.
6 | network_0/router_level2_0 | Beginning VC allocation for VC 0 at input 0 (front: 3).
6 | network_0/router_level2_0 |   Requesting VC 0 at output 12 (in_pri: 0, out_pri: 0).
6 | network_0/router_level2_0 |   Requesting VC 1 at output 12 (in_pri: 0, out_pri: 0).
6 | network_0/router_level2_0 |   Requesting VC 2 at output 12 (in_pri: 0, out_pri: 0).
6 | network_0/router_level2_0 |   Requesting VC 3 at output 12 (in_pri: 0, out_pri: 0).
6 | network_0/router_level2_0 | Beginning VC allocation for VC 0 at input 1 (front: 8).
6 | network_0/router_level2_0 |   Requesting VC 0 at output 10 (in_pri: 0, out_pri: 0).
6 | network_0/router_level2_0 |   Requesting VC 1 at output 10 (in_pri: 0, out_pri: 0).
6 | network_0/router_level2_0 |   Requesting VC 2 at output 10 (in_pri: 0, out_pri: 0).
6 | network_0/router_level2_0 |   Requesting VC 3 at output 10 (in_pri: 0, out_pri: 0).
6 | network_0/router_level2_0/vc_allocator | Input requests = [ 0 -> [ 48@0 49@0 50@0 51@0 ]  4 -> [ 40@0 41@0 42@0 43@0 ]  8 -> [ 44@0 45@0 46@0 47@0 ]  24 -> [ 52@0 53@0 54@0 55@0 ]  ], output requests = [ 40 -> [ 4@0 ]  41 -> [ 4@0 ]  42 -> [ 4@0 ]  43 -> [ 4@0 ]  44 -> [ 8@0 ]  45 -> [ 8@0 ]  46 -> [ 8@0 ]  47 -> [ 8@0 ]  48 -> [ 0@0 ]  49 -> [ 0@0 ]  50 -> [ 0@0 ]  51 -> [ 0@0 ]  52 -> [ 24@0 ]  53 -> [ 24@0 ]  54 -> [ 24@0 ]  55 -> [ 24@0 ]  ].
6 | network_0/router_level2_0/vc_allocator | Input grants = [ 0 -> 48  4 -> 40  8 -> 44  24 -> 52  ], output grants = [ 40 -> 4  44 -> 8  48 -> 0  52 -> 24  ].
6 | network_0/router_level2_0 | Assigning VC 0 at output 12 to VC 0 at input 0.
6 | network_0/router_level2_0 | Assigning VC 0 at output 10 to VC 0 at input 1.
6 | network_0/router_level2_0 | Completed VC allocation for VC 0 at input 0 (front: 3).
6 | network_0/router_level2_0 |   Acquiring assigned VC 0 at output 12.
6 | network_0/router_level2_0/buf_0/vc_0 | Changing state from vc_alloc to active.
6 | network_0/router_level2_0 | Completed VC allocation for VC 0 at input 1 (front: 8).
6 | network_0/router_level2_0 |   Acquiring assigned VC 0 at output 10.
6 | network_0/router_level2_0/buf_1/vc_0 | Changing state from vc_alloc to active.
6 | network_0/router_level2_1 | Adding flit 2 to VC 0 at input 0 (state: idle, empty).
6 | network_0/router_level2_1 | Using precomputed lookahead routing information for VC 0 at input 0 (front: 2).
6 | network_0/router_level2_1/buf_0/vc_0 | Changing state from idle to vc_alloc.
6 | network_0/router_level2_1 | Adding flit 6 to VC 0 at input 1 (state: idle, empty).
6 | network_0/router_level2_1 | Using precomputed lookahead routing information for VC 0 at input 1 (front: 6).
6 | network_0/router_level2_1/buf_1/vc_0 | Changing state from idle to vc_alloc.
6 | network_0/router_level2_1 | Beginning VC allocation for VC 0 at input 0 (front: 2).
6 | network_0/router_level2_1 |   Requesting VC 0 at output 15 (in_pri: 0, out_pri: 0).
6 | network_0/router_level2_1 |   Requesting VC 1 at output 15 (in_pri: 0, out_pri: 0).
6 | network_0/router_level2_1 |   Requesting VC 2 at output 15 (in_pri: 0, out_pri: 0).
6 | network_0/router_level2_1 |   Requesting VC 3 at output 15 (in_pri: 0, out_pri: 0).
6 | network_0/router_level2_1 | Beginning VC allocation for VC 0 at input 1 (front: 6).
6 | network_0/router_level2_1 |   Requesting VC 0 at output 9 (in_pri: 0, out_pri: 0).
6 | network_0/router_level2_1 |   Requesting VC 1 at output 9 (in_pri: 0, out_pri: 0).
6 | network_0/router_level2_1 |   Requesting VC 2 at output 9 (in_pri: 0, out_pri: 0).
6 | network_0/router_level2_1 |   Requesting VC 3 at output 9 (in_pri: 0, out_pri: 0).
6 | network_0/router_level2_1/vc_allocator | Input requests = [ 0 -> [ 60@0 61@0 62@0 63@0 ]  4 -> [ 36@0 37@0 38@0 39@0 ]  8 -> [ 40@0 41@0 42@0 43@0 ]  12 -> [ 40@0 41@0 42@0 43@0 ]  ], output requests = [ 36 -> [ 4@0 ]  37 -> [ 4@0 ]  38 -> [ 4@0 ]  39 -> [ 4@0 ]  40 -> [ 8@0 12@0 ]  41 -> [ 8@0 12@0 ]  42 -> [ 8@0 12@0 ]  43 -> [ 8@0 12@0 ]  60 -> [ 0@0 ]  61 -> [ 0@0 ]  62 -> [ 0@0 ]  63 -> [ 0@0 ]  ].
6 | network_0/router_level2_1/vc_allocator | Input grants = [ 0 -> 60  4 -> 36  8 -> 40  ], output grants = [ 36 -> 4  40 -> 8  60 -> 0  ].
6 | network_0/router_level2_1 | Assigning VC 0 at output 15 to VC 0 at input 0.
6 | network_0/router_level2_1 | Assigning VC 0 at output 9 to VC 0 at input 1.
6 | network_0/router_level2_1 | Completed VC allocation for VC 0 at input 0 (front: 2).
6 | network_0/router_level2_1 |   Acquiring assigned VC 0 at output 15.
6 | network_0/router_level2_1/buf_0/vc_0 | Changing state from vc_alloc to active.
6 | network_0/router_level2_1 | Completed VC allocation for VC 0 at input 1 (front: 6).
6 | network_0/router_level2_1 |   Acquiring assigned VC 0 at output 9.
6 | network_0/router_level2_1/buf_1/vc_0 | Changing state from vc_alloc to active.
6 | network_0/router_level2_2 | Adding flit 10 to VC 0 at input 1 (state: idle, empty).
6 | network_0/router_level2_2 | Using precomputed lookahead routing information for VC 0 at input 1 (front: 10).
6 | network_0/router_level2_2/buf_1/vc_0 | Changing state from idle to vc_alloc.
6 | network_0/router_level2_2 | Beginning VC allocation for VC 0 at input 1 (front: 10).
6 | network_0/router_level2_2 |   Requesting VC 0 at output 10 (in_pri: 0, out_pri: 0).
6 | network_0/router_level2_2 |   Requesting VC 1 at output 10 (in_pri: 0, out_pri: 0).
6 | network_0/router_level2_2 |   Requesting VC 2 at output 10 (in_pri: 0, out_pri: 0).
6 | network_0/router_level2_2 |   Requesting VC 3 at output 10 (in_pri: 0, out_pri: 0).
6 | network_0/router_level2_2/vc_allocator | Input requests = [ 4 -> [ 40@0 41@0 42@0 43@0 ]  24 -> [ 32@0 33@0 34@0 35@0 ]  ], output requests = [ 32 -> [ 24@0 ]  33 -> [ 24@0 ]  34 -> [ 24@0 ]  35 -> [ 24@0 ]  40 -> [ 4@0 ]  41 -> [ 4@0 ]  42 -> [ 4@0 ]  43 -> [ 4@0 ]  ].
6 | network_0/router_level2_2/vc_allocator | Input grants = [ 4 -> 40  24 -> 32  ], output grants = [ 32 -> 24  40 -> 4  ].
6 | network_0/router_level2_2 | Assigning VC 0 at output 10 to VC 0 at input 1.
6 | network_0/router_level2_2 | Completed VC allocation for VC 0 at input 1 (front: 10).
6 | network_0/router_level2_2 |   Acquiring assigned VC 0 at output 10.
6 | network_0/router_level2_2/buf_1/vc_0 | Changing state from vc_alloc to active.
6 | network_0/router_level2_5 | Adding flit 9 to VC 0 at input 1 (state: idle, empty).
6 | network_0/router_level2_5 | Using precomputed lookahead routing information for VC 0 at input 1 (front: 9).
6 | network_0/router_level2_5/buf_1/vc_0 | Changing state from idle to vc_alloc.
6 | network_0/router_level2_5 | Beginning VC allocation for VC 0 at input 1 (front: 9).
6 | network_0/router_level2_5 |   Requesting VC 0 at output 10 (in_pri: 0, out_pri: 0).
6 | network_0/router_level2_5 |   Requesting VC 1 at output 10 (in_pri: 0, out_pri: 0).
6 | network_0/router_level2_5 |   Requesting VC 2 at output 10 (in_pri: 0, out_pri: 0).
6 | network_0/router_level2_5 |   Requesting VC 3 at output 10 (in_pri: 0, out_pri: 0).
6 | network_0/router_level2_5/vc_allocator | Input requests = [ 4 -> [ 40@0 41@0 42@0 43@0 ]  8 -> [ 40@0 41@0 42@0 43@0 ]  12 -> [ 60@0 61@0 62@0 63@0 ]  16 -> [ 40@0 41@0 42@0 43@0 ]  20 -> [ 32@0 33@0 34@0 35@0 ]  28 -> [ 52@0 53@0 54@0 55@0 ]  ], output requests = [ 32 -> [ 20@0 ]  33 -> [ 20@0 ]  34 -> [ 20@0 ]  35 -> [ 20@0 ]  40 -> [ 4@0 8@0 16@0 ]  41 -> [ 4@0 8@0 16@0 ]  42 -> [ 4@0 8@0 16@0 ]  43 -> [ 4@0 8@0 16@0 ]  52 -> [ 28@0 ]  53 -> [ 28@0 ]  54 -> [ 28@0 ]  55 -> [ 28@0 ]  60 -> [ 12@0 ]  61 -> [ 12@0 ]  62 -> [ 12@0 ]  63 -> [ 12@0 ]  ].
6 | network_0/router_level2_5/vc_allocator | Input grants = [ 4 -> 40  12 -> 60  20 -> 32  28 -> 52  ], output grants = [ 32 -> 20  40 -> 4  52 -> 28  60 -> 12  ].
6 | network_0/router_level2_5 | Assigning VC 0 at output 10 to VC 0 at input 1.
6 | network_0/router_level2_5 | Completed VC allocation for VC 0 at input 1 (front: 9).
6 | network_0/router_level2_5 |   Acquiring assigned VC 0 at output 10.
6 | network_0/router_level2_5/buf_1/vc_0 | Changing state from vc_alloc to active.
6 | network_0/router_level2_6 | Adding flit 1 to VC 0 at input 0 (state: idle, empty).
6 | network_0/router_level2_6 | Using precomputed lookahead routing information for VC 0 at input 0 (front: 1).
6 | network_0/router_level2_6/buf_0/vc_0 | Changing state from idle to vc_alloc.
6 | network_0/router_level2_6 | Adding flit 7 to VC 0 at input 1 (state: idle, empty).
6 | network_0/router_level2_6 | Using precomputed lookahead routing information for VC 0 at input 1 (front: 7).
6 | network_0/router_level2_6/buf_1/vc_0 | Changing state from idle to vc_alloc.
6 | network_0/router_level2_6 | Beginning VC allocation for VC 0 at input 0 (front: 1).
6 | network_0/router_level2_6 |   Requesting VC 0 at output 11 (in_pri: 0, out_pri: 0).
6 | network_0/router_level2_6 |   Requesting VC 1 at output 11 (in_pri: 0, out_pri: 0).
6 | network_0/router_level2_6 |   Requesting VC 2 at output 11 (in_pri: 0, out_pri: 0).
6 | network_0/router_level2_6 |   Requesting VC 3 at output 11 (in_pri: 0, out_pri: 0).
6 | network_0/router_level2_6 | Beginning VC allocation for VC 0 at input 1 (front: 7).
6 | network_0/router_level2_6 |   Requesting VC 0 at output 9 (in_pri: 0, out_pri: 0).
6 | network_0/router_level2_6 |   Requesting VC 1 at output 9 (in_pri: 0, out_pri: 0).
6 | network_0/router_level2_6 |   Requesting VC 2 at output 9 (in_pri: 0, out_pri: 0).
6 | network_0/router_level2_6 |   Requesting VC 3 at output 9 (in_pri: 0, out_pri: 0).
6 | network_0/router_level2_6/vc_allocator | Input requests = [ 0 -> [ 44@0 45@0 46@0 47@0 ]  4 -> [ 36@0 37@0 38@0 39@0 ]  8 -> [ 60@0 61@0 62@0 63@0 ]  12 -> [ 60@0 61@0 62@0 63@0 ]  20 -> [ 36@0 37@0 38@0 39@0 ]  24 -> [ 44@0 45@0 46@0 47@0 ]  28 -> [ 32@0 33@0 34@0 35@0 ]  ], output requests = [ 32 -> [ 28@0 ]  33 -> [ 28@0 ]  34 -> [ 28@0 ]  35 -> [ 28@0 ]  36 -> [ 4@0 20@0 ]  37 -> [ 4@0 20@0 ]  38 -> [ 4@0 20@0 ]  39 -> [ 4@0 20@0 ]  44 -> [ 0@0 24@0 ]  45 -> [ 0@0 24@0 ]  46 -> [ 0@0 24@0 ]  47 -> [ 0@0 24@0 ]  60 -> [ 8@0 12@0 ]  61 -> [ 8@0 12@0 ]  62 -> [ 8@0 12@0 ]  63 -> [ 8@0 12@0 ]  ].
6 | network_0/router_level2_6/vc_allocator | Input grants = [ 0 -> 44  4 -> 36  8 -> 60  28 -> 32  ], output grants = [ 32 -> 28  36 -> 4  44 -> 0  60 -> 8  ].
6 | network_0/router_level2_6 | Assigning VC 0 at output 11 to VC 0 at input 0.
6 | network_0/router_level2_6 | Assigning VC 0 at output 9 to VC 0 at input 1.
6 | network_0/router_level2_6 | Completed VC allocation for VC 0 at input 0 (front: 1).
6 | network_0/router_level2_6 |   Acquiring assigned VC 0 at output 11.
6 | network_0/router_level2_6/buf_0/vc_0 | Changing state from vc_alloc to active.
6 | network_0/router_level2_6 | Completed VC allocation for VC 0 at input 1 (front: 7).
6 | network_0/router_level2_6 |   Acquiring assigned VC 0 at output 9.
6 | network_0/router_level2_6/buf_1/vc_0 | Changing state from vc_alloc to active.
6 | network_0/router_level2_7 | Adding flit 5 to VC 0 at input 1 (state: idle, empty).
6 | network_0/router_level2_7 | Using precomputed lookahead routing information for VC 0 at input 1 (front: 5).
6 | network_0/router_level2_7/buf_1/vc_0 | Changing state from idle to vc_alloc.
6 | network_0/router_level2_7 | Beginning VC allocation for VC 0 at input 1 (front: 5).
6 | network_0/router_level2_7 |   Requesting VC 0 at output 10 (in_pri: 0, out_pri: 0).
6 | network_0/router_level2_7 |   Requesting VC 1 at output 10 (in_pri: 0, out_pri: 0).
6 | network_0/router_level2_7 |   Requesting VC 2 at output 10 (in_pri: 0, out_pri: 0).
6 | network_0/router_level2_7 |   Requesting VC 3 at output 10 (in_pri: 0, out_pri: 0).
6 | network_0/router_level2_7/vc_allocator | Input requests = [ 0 -> [ 40@0 41@0 42@0 43@0 ]  4 -> [ 40@0 41@0 42@0 43@0 ]  20 -> [ 44@0 45@0 46@0 47@0 ]  24 -> [ 36@0 37@0 38@0 39@0 ]  28 -> [ 56@0 57@0 58@0 59@0 ]  ], output requests = [ 36 -> [ 24@0 ]  37 -> [ 24@0 ]  38 -> [ 24@0 ]  39 -> [ 24@0 ]  40 -> [ 0@0 4@0 ]  41 -> [ 0@0 4@0 ]  42 -> [ 0@0 4@0 ]  43 -> [ 0@0 4@0 ]  44 -> [ 20@0 ]  45 -> [ 20@0 ]  46 -> [ 20@0 ]  47 -> [ 20@0 ]  56 -> [ 28@0 ]  57 -> [ 28@0 ]  58 -> [ 28@0 ]  59 -> [ 28@0 ]  ].
6 | network_0/router_level2_7/vc_allocator | Input grants = [ 0 -> 40  20 -> 44  24 -> 36  28 -> 56  ], output grants = [ 36 -> 24  40 -> 0  44 -> 20  56 -> 28  ].
6 | network_0/router_level2_7 | VC allocation failed for VC 0 at input 1.
6 | network_0/router_level2_7 | Completed VC allocation for VC 0 at input 1 (front: 5).
6 | network_0/router_level2_7 |   No output VC allocated.
6 | network_0/network_0_fchan_20486 | Completed channel traversal for flit 4.
7 | network_0/router_level2_6 | Received flit 4 from channel at input 0.
7 | network_0/router_level2_0 | Beginning switch allocation for VC 0 at input 0 (front: 3).
7 | network_0/router_level2_0 |   Requesting output 12.0 (non-spec, pri: 0).
7 | network_0/router_level2_0 | Beginning switch allocation for VC 0 at input 1 (front: 8).
7 | network_0/router_level2_0 |   Requesting output 10.0 (non-spec, pri: 0).
7 | network_0/router_level2_0/sw_allocator | Input requests = [ 0 -> [ 12@0 ]  1 -> [ 10@0 ]  2 -> [ 11@0 ]  6 -> [ 13@0 ]  ], output requests = [ 10 -> [ 1@0 ]  11 -> [ 2@0 ]  12 -> [ 0@0 ]  13 -> [ 6@0 ]  ].
7 | network_0/router_level2_0/sw_allocator | Input grants = [ 0 -> 12  1 -> 10  2 -> 11  6 -> 13  ], output grants = [ 10 -> 1  11 -> 2  12 -> 0  13 -> 6  ].
7 | network_0/router_level2_0 | Assigning output 12.0 to VC 0 at input 0.0.
7 | network_0/router_level2_0 | Assigning output 10.0 to VC 0 at input 1.0.
7 | network_0/router_level2_0 | Completed switch allocation for VC 0 at input 0 (front: 3).
7 | network_0/router_level2_0 |   Scheduling switch connection from input 0.0 to output 12.0.
7 | network_0/router_level2_0 | Updating lookahead routing information for flit 3.
7 | network_0/router_level2_0 | Completed switch allocation for VC 0 at input 1 (front: 8).
7 | network_0/router_level2_0 |   Scheduling switch connection from input 1.0 to output 10.0.
7 | network_0/router_level2_0 | Updating lookahead routing information for flit 8.
7 | network_0/router_level2_1 | Beginning switch allocation for VC 0 at input 0 (front: 2).
7 | network_0/router_level2_1 |   Requesting output 15.0 (non-spec, pri: 0).
7 | network_0/router_level2_1 | Beginning switch allocation for VC 0 at input 1 (front: 6).
7 | network_0/router_level2_1 |   Requesting output 9.0 (non-spec, pri: 0).
7 | network_0/router_level2_1/sw_allocator | Input requests = [ 0 -> [ 15@0 ]  1 -> [ 9@0 ]  2 -> [ 10@0 ]  ], output requests = [ 9 -> [ 1@0 ]  10 -> [ 2@0 ]  15 -> [ 0@0 ]  ].
7 | network_0/router_level2_1/sw_allocator | Input grants = [ 0 -> 15  1 -> 9  2 -> 10  ], output grants = [ 9 -> 1  10 -> 2  15 -> 0  ].
7 | network_0/router_level2_1 | Assigning output 15.0 to VC 0 at input 0.0.
7 | network_0/router_level2_1 | Assigning output 9.0 to VC 0 at input 1.0.
7 | network_0/router_level2_1 | Completed switch allocation for VC 0 at input 0 (front: 2).
7 | network_0/router_level2_1 |   Scheduling switch connection from input 0.0 to output 15.0.
7 | network_0/router_level2_1 | Updating lookahead routing information for flit 2.
7 | network_0/router_level2_1 | Completed switch allocation for VC 0 at input 1 (front: 6).
7 | network_0/router_level2_1 |   Scheduling switch connection from input 1.0 to output 9.0.
7 | network_0/router_level2_1 | Updating lookahead routing information for flit 6.
7 | network_0/router_level2_2 | Beginning switch allocation for VC 0 at input 1 (front: 10).
7 | network_0/router_level2_2 |   Requesting output 10.0 (non-spec, pri: 0).
7 | network_0/router_level2_2/sw_allocator | Input requests = [ 1 -> [ 10@0 ]  6 -> [ 8@0 ]  ], output requests = [ 8 -> [ 6@0 ]  10 -> [ 1@0 ]  ].
7 | network_0/router_level2_2/sw_allocator | Input grants = [ 1 -> 10  6 -> 8  ], output grants = [ 8 -> 6  10 -> 1  ].
7 | network_0/router_level2_2 | Assigning output 10.0 to VC 0 at input 1.0.
7 | network_0/router_level2_2 | Completed switch allocation for VC 0 at input 1 (front: 10).
7 | network_0/router_level2_2 |   Scheduling switch connection from input 1.0 to output 10.0.
7 | network_0/router_level2_2 | Updating lookahead routing information for flit 10.
7 | network_0/router_level2_5 | Beginning switch allocation for VC 0 at input 1 (front: 9).
7 | network_0/router_level2_5 |   Requesting output 10.0 (non-spec, pri: 0).
7 | network_0/router_level2_5/sw_allocator | Input requests = [ 1 -> [ 10@0 ]  3 -> [ 15@0 ]  5 -> [ 8@0 ]  7 -> [ 13@0 ]  ], output requests = [ 8 -> [ 5@0 ]  10 -> [ 1@0 ]  13 -> [ 7@0 ]  15 -> [ 3@0 ]  ].
7 | network_0/router_level2_5/sw_allocator | Input grants = [ 1 -> 10  3 -> 15  5 -> 8  7 -> 13  ], output grants = [ 8 -> 5  10 -> 1  13 -> 7  15 -> 3  ].
7 | network_0/router_level2_5 | Assigning output 10.0 to VC 0 at input 1.0.
7 | network_0/router_level2_5 | Completed switch allocation for VC 0 at input 1 (front: 9).
7 | network_0/router_level2_5 |   Scheduling switch connection from input 1.0 to output 10.0.
7 | network_0/router_level2_5 | Updating lookahead routing information for flit 9.
7 | network_0/router_level2_6 | Adding flit 4 to VC 1 at input 0 (state: idle, empty).
7 | network_0/router_level2_6 | Using precomputed lookahead routing information for VC 1 at input 0 (front: 4).
7 | network_0/router_level2_6/buf_0/vc_1 | Changing state from idle to vc_alloc.
7 | network_0/router_level2_6 | Beginning VC allocation for VC 1 at input 0 (front: 4).
7 | network_0/router_level2_6 |   Requesting VC 0 at output 14 (in_pri: 0, out_pri: 0).
7 | network_0/router_level2_6 |   Requesting VC 1 at output 14 (in_pri: 0, out_pri: 0).
7 | network_0/router_level2_6 |   Requesting VC 2 at output 14 (in_pri: 0, out_pri: 0).
7 | network_0/router_level2_6 |   Requesting VC 3 at output 14 (in_pri: 0, out_pri: 0).
7 | network_0/router_level2_6/vc_allocator | Input requests = [ 1 -> [ 56@0 57@0 58@0 59@0 ]  9 -> [ 33@0 34@0 35@0 ]  12 -> [ 61@0 62@0 63@0 ]  16 -> [ 48@0 49@0 50@0 51@0 ]  20 -> [ 37@0 38@0 39@0 ]  24 -> [ 45@0 46@0 47@0 ]  25 -> [ 61@0 62@0 63@0 ]  29 -> [ 56@0 57@0 58@0 59@0 ]  ], output requests = [ 33 -> [ 9@0 ]  34 -> [ 9@0 ]  35 -> [ 9@0 ]  37 -> [ 20@0 ]  38 -> [ 20@0 ]  39 -> [ 20@0 ]  45 -> [ 24@0 ]  46 -> [ 24@0 ]  47 -> [ 24@0 ]  48 -> [ 16@0 ]  49 -> [ 16@0 ]  50 -> [ 16@0 ]  51 -> [ 16@0 ]  56 -> [ 1@0 29@0 ]  57 -> [ 1@0 29@0 ]  58 -> [ 1@0 29@0 ]  59 -> [ 1@0 29@0 ]  61 -> [ 12@0 25@0 ]  62 -> [ 12@0 25@0 ]  63 -> [ 12@0 25@0 ]  ].
7 | network_0/router_level2_6/vc_allocator | Input grants = [ 1 -> 56  9 -> 33  12 -> 61  16 -> 48  20 -> 37  24 -> 45  ], output grants = [ 33 -> 9  37 -> 20  45 -> 24  48 -> 16  56 -> 1  61 -> 12  ].
7 | network_0/router_level2_6 | Assigning VC 0 at output 14 to VC 1 at input 0.
7 | network_0/router_level2_6 | Beginning switch allocation for VC 0 at input 0 (front: 1).
7 | network_0/router_level2_6 |   Requesting output 11.0 (non-spec, pri: 0).
7 | network_0/router_level2_6 | Beginning switch allocation for VC 0 at input 1 (front: 7).
7 | network_0/router_level2_6 |   Requesting output 9.0 (non-spec, pri: 0).
7 | network_0/router_level2_6/sw_allocator | Input requests = [ 0 -> [ 11@0 ]  1 -> [ 9@0 ]  2 -> [ 15@0 ]  7 -> [ 8@0 ]  ], output requests = [ 8 -> [ 7@0 ]  9 -> [ 1@0 ]  11 -> [ 0@0 ]  15 -> [ 2@0 ]  ].
7 | network_0/router_level2_6/sw_allocator | Input grants = [ 0 -> 11  1 -> 9  2 -> 15  7 -> 8  ], output grants = [ 8 -> 7  9 -> 1  11 -> 0  15 -> 2  ].
7 | network_0/router_level2_6 | Assigning output 11.0 to VC 0 at input 0.0.
7 | network_0/router_level2_6 | Assigning output 9.0 to VC 0 at input 1.0.
7 | network_0/router_level2_6 | Completed VC allocation for VC 1 at input 0 (front: 4).
7 | network_0/router_level2_6 |   Acquiring assigned VC 0 at output 14.
7 | network_0/router_level2_6/buf_0/vc_1 | Changing state from vc_alloc to active.
7 | network_0/router_level2_6 | Completed switch allocation for VC 0 at input 0 (front: 1).
7 | network_0/router_level2_6 |   Scheduling switch connection from input 0.0 to output 11.0.
7 | network_0/router_level2_6 | Updating lookahead routing information for flit 1.
7 | network_0/router_level2_6 | Completed switch allocation for VC 0 at input 1 (front: 7).
7 | network_0/router_level2_6 |   Scheduling switch connection from input 1.0 to output 9.0.
7 | network_0/router_level2_6 | Updating lookahead routing information for flit 7.
7 | network_0/router_level2_7 | Beginning VC allocation for VC 0 at input 1 (front: 5).
7 | network_0/router_level2_7 |   VC 0 at output 10 is in use by VC 0 at input 0 (front flit: 0).
7 | network_0/router_level2_7 |   Requesting VC 1 at output 10 (in_pri: 0, out_pri: 0).
7 | network_0/router_level2_7 |   Requesting VC 2 at output 10 (in_pri: 0, out_pri: 0).
7 | network_0/router_level2_7 |   Requesting VC 3 at output 10 (in_pri: 0, out_pri: 0).
7 | network_0/router_level2_7/vc_allocator | Input requests = [ 1 -> [ 32@0 33@0 34@0 35@0 ]  4 -> [ 41@0 42@0 43@0 ]  21 -> [ 52@0 53@0 54@0 55@0 ]  29 -> [ 52@0 53@0 54@0 55@0 ]  ], output requests = [ 32 -> [ 1@0 ]  33 -> [ 1@0 ]  34 -> [ 1@0 ]  35 -> [ 1@0 ]  41 -> [ 4@0 ]  42 -> [ 4@0 ]  43 -> [ 4@0 ]  52 -> [ 21@0 29@0 ]  53 -> [ 21@0 29@0 ]  54 -> [ 21@0 29@0 ]  55 -> [ 21@0 29@0 ]  ].
7 | network_0/router_level2_7/vc_allocator | Input grants = [ 1 -> 32  4 -> 41  21 -> 52  ], output grants = [ 32 -> 1  41 -> 4  52 -> 21  ].
7 | network_0/router_level2_7 | Assigning VC 1 at output 10 to VC 0 at input 1.
7 | network_0/router_level2_7 | Completed VC allocation for VC 0 at input 1 (front: 5).
7 | network_0/router_level2_7 |   Acquiring assigned VC 1 at output 10.
7 | network_0/router_level2_7/buf_1/vc_0 | Changing state from vc_alloc to active.
8 | network_0/router_level2_0 | Beginning crossbar traversal for flit 3 from input 0.0 to output 12.0.
8 | network_0/router_level2_0 | Beginning crossbar traversal for flit 8 from input 1.0 to output 10.0.
8 | network_0/router_level2_0 | Completed crossbar traversal for flit 3 from input 0.0 to output 12.0.
8 | network_0/router_level2_0 | Buffering flit 3 at output 12.
8 | network_0/router_level2_0 | Completed crossbar traversal for flit 8 from input 1.0 to output 10.0.
8 | network_0/router_level2_0 | Buffering flit 8 at output 10.
8 | network_0/router_level2_1 | Beginning crossbar traversal for flit 2 from input 0.0 to output 15.0.
8 | network_0/router_level2_1 | Beginning crossbar traversal for flit 6 from input 1.0 to output 9.0.
8 | network_0/router_level2_1 | Completed crossbar traversal for flit 2 from input 0.0 to output 15.0.
8 | network_0/router_level2_1 | Buffering flit 2 at output 15.
8 | network_0/router_level2_1 | Completed crossbar traversal for flit 6 from input 1.0 to output 9.0.
8 | network_0/router_level2_1 | Buffering flit 6 at output 9.
8 | network_0/router_level2_2 | Beginning crossbar traversal for flit 10 from input 1.0 to output 10.0.
8 | network_0/router_level2_2 | Completed crossbar traversal for flit 10 from input 1.0 to output 10.0.
8 | network_0/router_level2_2 | Buffering flit 10 at output 10.
8 | network_0/router_level2_5 | Beginning crossbar traversal for flit 9 from input 1.0 to output 10.0.
8 | network_0/router_level2_5 | Completed crossbar traversal for flit 9 from input 1.0 to output 10.0.
8 | network_0/router_level2_5 | Buffering flit 9 at output 10.
8 | network_0/router_level2_6 | Beginning switch allocation for VC 1 at input 0 (front: 4).
8 | network_0/router_level2_6 |   Requesting output 14.0 (non-spec, pri: 0).
8 | network_0/router_level2_6/sw_allocator | Input requests = [ 0 -> [ 14@0 ]  2 -> [ 8@0 ]  3 -> [ 15@0 ]  4 -> [ 12@0 ]  5 -> [ 9@0 ]  6 -> [ 11@0 ]  ], output requests = [ 8 -> [ 2@0 ]  9 -> [ 5@0 ]  11 -> [ 6@0 ]  12 -> [ 4@0 ]  14 -> [ 0@0 ]  15 -> [ 3@0 ]  ].
8 | network_0/router_level2_6/sw_allocator | Input grants = [ 0 -> 14  2 -> 8  3 -> 15  4 -> 12  5 -> 9  6 -> 11  ], output grants = [ 8 -> 2  9 -> 5  11 -> 6  12 -> 4  14 -> 0  15 -> 3  ].
8 | network_0/router_level2_6 | Assigning output 14.0 to VC 1 at input 0.0.
8 | network_0/router_level2_6 | Beginning crossbar traversal for flit 1 from input 0.0 to output 11.0.
8 | network_0/router_level2_6 | Beginning crossbar traversal for flit 7 from input 1.0 to output 9.0.
8 | network_0/router_level2_6 | Completed switch allocation for VC 1 at input 0 (front: 4).
8 | network_0/router_level2_6 |   Scheduling switch connection from input 0.0 to output 14.0.
8 | network_0/router_level2_6 | Updating lookahead routing information for flit 4.
8 | network_0/router_level2_6 | Completed crossbar traversal for flit 1 from input 0.0 to output 11.0.
8 | network_0/router_level2_6 | Buffering flit 1 at output 11.
8 | network_0/router_level2_6 | Completed crossbar traversal for flit 7 from input 1.0 to output 9.0.
8 | network_0/router_level2_6 | Buffering flit 7 at output 9.
8 | network_0/router_level2_7 | Beginning switch allocation for VC 0 at input 1 (front: 5).
8 | network_0/router_level2_7 |   Requesting output 10.0 (non-spec, pri: 0).
8 | network_0/router_level2_7/sw_allocator | Input requests = [ 0 -> [ 8@0 ]  1 -> [ 10@0 ]  5 -> [ 13@0 ]  ], output requests = [ 8 -> [ 0@0 ]  10 -> [ 1@0 ]  13 -> [ 5@0 ]  ].
8 | network_0/router_level2_7/sw_allocator | Input grants = [ 0 -> 8  1 -> 10  5 -> 13  ], output grants = [ 8 -> 0  10 -> 1  13 -> 5  ].
8 | network_0/router_level2_7 | Assigning output 10.0 to VC 0 at input 1.0.
8 | network_0/router_level2_7 | Completed switch allocation for VC 0 at input 1 (front: 5).
8 | network_0/router_level2_7 |   Scheduling switch connection from input 1.0 to output 10.0.
8 | network_0/router_level2_7 | Updating lookahead routing information for flit 5.
8 | network_0/router_level2_0 | Sending flit 8 to channel at output 10.
8 | network_0/router_level2_0 | Sending flit 3 to channel at output 12.
8 | network_0/router_level2_1 | Sending flit 6 to channel at output 9.
8 | network_0/router_level2_1 | Sending flit 2 to channel at output 15.
8 | network_0/router_level2_2 | Sending flit 10 to channel at output 10.
8 | network_0/router_level2_5 | Sending flit 9 to channel at output 10.
8 | network_0/router_level2_6 | Sending flit 7 to channel at output 9.
8 | network_0/router_level2_6 | Sending flit 1 to channel at output 11.
9 | network_0/network_0_fchan_12290 | Beginning channel traversal for flit 8 with delay 1.
9 | network_0/network_0_fchan_12292 | Beginning channel traversal for flit 3 with delay 1.
9 | network_0/network_0_fchan_12297 | Beginning channel traversal for flit 6 with delay 1.
9 | network_0/network_0_fchan_12303 | Beginning channel traversal for flit 2 with delay 1.
9 | network_0/network_0_fchan_12306 | Beginning channel traversal for flit 10 with delay 1.
9 | network_0/network_0_fchan_12330 | Beginning channel traversal for flit 9 with delay 1.
9 | network_0/network_0_fchan_12337 | Beginning channel traversal for flit 7 with delay 1.
9 | network_0/network_0_fchan_12339 | Beginning channel traversal for flit 1 with delay 1.
9 | network_0/router_level2_6 | Beginning crossbar traversal for flit 4 from input 0.0 to output 14.0.
9 | network_0/router_level2_6 | Completed crossbar traversal for flit 4 from input 0.0 to output 14.0.
9 | network_0/router_level2_6 | Buffering flit 4 at output 14.
9 | network_0/router_level2_7 | Beginning crossbar traversal for flit 5 from input 1.0 to output 10.0.
9 | network_0/router_level2_7 | Completed crossbar traversal for flit 5 from input 1.0 to output 10.0.
9 | network_0/router_level2_7 | Buffering flit 5 at output 10.
9 | network_0/network_0_fchan_12290 | Completed channel traversal for flit 8.
9 | network_0/network_0_fchan_12292 | Completed channel traversal for flit 3.
9 | network_0/network_0_fchan_12297 | Completed channel traversal for flit 6.
9 | network_0/network_0_fchan_12303 | Completed channel traversal for flit 2.
9 | network_0/network_0_fchan_12306 | Completed channel traversal for flit 10.
9 | network_0/network_0_fchan_12330 | Completed channel traversal for flit 9.
9 | network_0/network_0_fchan_12337 | Completed channel traversal for flit 7.
9 | network_0/network_0_fchan_12339 | Completed channel traversal for flit 1.
9 | network_0/router_level2_6 | Sending flit 4 to channel at output 14.
9 | network_0/router_level2_7 | Sending flit 5 to channel at output 10.
10 | network_0/network_0_fchan_12342 | Beginning channel traversal for flit 4 with delay 1.
10 | network_0/network_0_fchan_12346 | Beginning channel traversal for flit 5 with delay 1.
10 | network_0/router_level1_9 | Received flit 6 from channel at input 0.
10 | network_0/router_level1_14 | Received flit 7 from channel at input 0.
10 | network_0/router_level1_16 | Received flit 8 from channel at input 0.
10 | network_0/router_level1_18 | Received flit 10 from channel at input 0.
10 | network_0/router_level1_21 | Received flit 9 from channel at input 0.
10 | network_0/router_level1_30 | Received flit 1 from channel at input 0.
10 | network_0/router_level1_32 | Received flit 3 from channel at input 0.
10 | network_0/router_level1_57 | Received flit 2 from channel at input 0.
10 | network_0/router_level1_9 | Adding flit 6 to VC 0 at input 0 (state: idle, empty).
10 | network_0/router_level1_9 | Using precomputed lookahead routing information for VC 0 at input 0 (front: 6).
10 | network_0/router_level1_9/buf_0/vc_0 | Changing state from idle to vc_alloc.
10 | network_0/router_level1_9 | Beginning VC allocation for VC 0 at input 0 (front: 6).
10 | network_0/router_level1_9 |   Requesting VC 0 at output 9 (in_pri: 0, out_pri: 0).
10 | network_0/router_level1_9 |   Requesting VC 1 at output 9 (in_pri: 0, out_pri: 0).
10 | network_0/router_level1_9 |   Requesting VC 2 at output 9 (in_pri: 0, out_pri: 0).
10 | network_0/router_level1_9 |   Requesting VC 3 at output 9 (in_pri: 0, out_pri: 0).
10 | network_0/router_level1_9/vc_allocator | Input requests = [ 0 -> [ 36@0 37@0 38@0 39@0 ]  4 -> [ 40@0 41@0 42@0 43@0 ]  28 -> [ 36@0 37@0 38@0 39@0 ]  ], output requests = [ 36 -> [ 0@0 28@0 ]  37 -> [ 0@0 28@0 ]  38 -> [ 0@0 28@0 ]  39 -> [ 0@0 28@0 ]  40 -> [ 4@0 ]  41 -> [ 4@0 ]  42 -> [ 4@0 ]  43 -> [ 4@0 ]  ].
10 | network_0/router_level1_9/vc_allocator | Input grants = [ 0 -> 36  4 -> 40  ], output grants = [ 36 -> 0  40 -> 4  ].
10 | network_0/router_level1_9 | Assigning VC 0 at output 9 to VC 0 at input 0.
10 | network_0/router_level1_9 | Completed VC allocation for VC 0 at input 0 (front: 6).
10 | network_0/router_level1_9 |   Acquiring assigned VC 0 at output 9.
10 | network_0/router_level1_9/buf_0/vc_0 | Changing state from vc_alloc to active.
10 | network_0/router_level1_14 | Adding flit 7 to VC 0 at input 0 (state: idle, empty).
10 | network_0/router_level1_14 | Using precomputed lookahead routing information for VC 0 at input 0 (front: 7).
10 | network_0/router_level1_14/buf_0/vc_0 | Changing state from idle to vc_alloc.
10 | network_0/router_level1_14 | Beginning VC allocation for VC 0 at input 0 (front: 7).
10 | network_0/router_level1_14 |   Requesting VC 0 at output 11 (in_pri: 0, out_pri: 0).
10 | network_0/router_level1_14 |   Requesting VC 1 at output 11 (in_pri: 0, out_pri: 0).
10 | network_0/router_level1_14 |   Requesting VC 2 at output 11 (in_pri: 0, out_pri: 0).
10 | network_0/router_level1_14 |   Requesting VC 3 at output 11 (in_pri: 0, out_pri: 0).
10 | network_0/router_level1_14/vc_allocator | Input requests = [ 0 -> [ 44@0 45@0 46@0 47@0 ]  12 -> [ 32@0 33@0 34@0 35@0 ]  16 -> [ 40@0 41@0 42@0 43@0 ]  20 -> [ 60@0 61@0 62@0 63@0 ]  ], output requests = [ 32 -> [ 12@0 ]  33 -> [ 12@0 ]  34 -> [ 12@0 ]  35 -> [ 12@0 ]  40 -> [ 16@0 ]  41 -> [ 16@0 ]  42 -> [ 16@0 ]  43 -> [ 16@0 ]  44 -> [ 0@0 ]  45 -> [ 0@0 ]  46 -> [ 0@0 ]  47 -> [ 0@0 ]  60 -> [ 20@0 ]  61 -> [ 20@0 ]  62 -> [ 20@0 ]  63 -> [ 20@0 ]  ].
10 | network_0/router_level1_14/vc_allocator | Input grants = [ 0 -> 44  12 -> 32  16 -> 40  20 -> 60  ], output grants = [ 32 -> 12  40 -> 16  44 -> 0  60 -> 20  ].
10 | network_0/router_level1_14 | Assigning VC 0 at output 11 to VC 0 at input 0.
10 | network_0/router_level1_14 | Completed VC allocation for VC 0 at input 0 (front: 7).
10 | network_0/router_level1_14 |   Acquiring assigned VC 0 at output 11.
10 | network_0/router_level1_14/buf_0/vc_0 | Changing state from vc_alloc to active.
10 | network_0/router_level1_16 | Adding flit 8 to VC 0 at input 0 (state: idle, empty).
10 | network_0/router_level1_16 | Using precomputed lookahead routing information for VC 0 at input 0 (front: 8).
10 | network_0/router_level1_16/buf_0/vc_0 | Changing state from idle to vc_alloc.
10 | network_0/router_level1_16 | Beginning VC allocation for VC 0 at input 0 (front: 8).
10 | network_0/router_level1_16 |   Requesting VC 0 at output 12 (in_pri: 0, out_pri: 0).
10 | network_0/router_level1_16 |   Requesting VC 1 at output 12 (in_pri: 0, out_pri: 0).
10 | network_0/router_level1_16 |   Requesting VC 2 at output 12 (in_pri: 0, out_pri: 0).
10 | network_0/router_level1_16 |   Requesting VC 3 at output 12 (in_pri: 0, out_pri: 0).
10 | network_0/router_level1_16/vc_allocator | Input requests = [ 0 -> [ 48@0 49@0 50@0 51@0 ]  8 -> [ 36@0 37@0 38@0 39@0 ]  12 -> [ 56@0 57@0 58@0 59@0 ]  20 -> [ 52@0 53@0 54@0 55@0 ]  24 -> [ 44@0 45@0 46@0 47@0 ]  28 -> [ 56@0 57@0 58@0 59@0 ]  ], output requests = [ 36 -> [ 8@0 ]  37 -> [ 8@0 ]  38 -> [ 8@0 ]  39 -> [ 8@0 ]  44 -> [ 24@0 ]  45 -> [ 24@0 ]  46 -> [ 24@0 ]  47 -> [ 24@0 ]  48 -> [ 0@0 ]  49 -> [ 0@0 ]  50 -> [ 0@0 ]  51 -> [ 0@0 ]  52 -> [ 20@0 ]  53 -> [ 20@0 ]  54 -> [ 20@0 ]  55 -> [ 20@0 ]  56 -> [ 12@0 28@0 ]  57 -> [ 12@0 28@0 ]  58 -> [ 12@0 28@0 ]  59 -> [ 12@0 28@0 ]  ].
10 | network_0/router_level1_16/vc_allocator | Input grants = [ 0 -> 48  8 -> 36  12 -> 56  20 -> 52  24 -> 44  ], output grants = [ 36 -> 8  44 -> 24  48 -> 0  52 -> 20  56 -> 12  ].
10 | network_0/router_level1_16 | Assigning VC 0 at output 12 to VC 0 at input 0.
10 | network_0/router_level1_16 | Completed VC allocation for VC 0 at input 0 (front: 8).
10 | network_0/router_level1_16 |   Acquiring assigned VC 0 at output 12.
10 | network_0/router_level1_16/buf_0/vc_0 | Changing state from vc_alloc to active.
10 | network_0/router_level1_18 | Adding flit 10 to VC 0 at input 0 (state: idle, empty).
10 | network_0/router_level1_18 | Using precomputed lookahead routing information for VC 0 at input 0 (front: 10).
10 | network_0/router_level1_18/buf_0/vc_0 | Changing state from idle to vc_alloc.
10 | network_0/router_level1_18 | Beginning VC allocation for VC 0 at input 0 (front: 10).
10 | network_0/router_level1_18 |   Requesting VC 0 at output 12 (in_pri: 0, out_pri: 0).
10 | network_0/router_level1_18 |   Requesting VC 1 at output 12 (in_pri: 0, out_pri: 0).
10 | network_0/router_level1_18 |   Requesting VC 2 at output 12 (in_pri: 0, out_pri: 0).
10 | network_0/router_level1_18 |   Requesting VC 3 at output 12 (in_pri: 0, out_pri: 0).
10 | network_0/router_level1_18/vc_allocator | Input requests = [ 0 -> [ 48@0 49@0 50@0 51@0 ]  4 -> [ 48@0 49@0 50@0 51@0 ]  8 -> [ 40@0 41@0 42@0 43@0 ]  12 -> [ 40@0 41@0 42@0 43@0 ]  16 -> [ 36@0 37@0 38@0 39@0 ]  20 -> [ 60@0 61@0 62@0 63@0 ]  28 -> [ 52@0 53@0 54@0 55@0 ]  ], output requests = [ 36 -> [ 16@0 ]  37 -> [ 16@0 ]  38 -> [ 16@0 ]  39 -> [ 16@0 ]  40 -> [ 8@0 12@0 ]  41 -> [ 8@0 12@0 ]  42 -> [ 8@0 12@0 ]  43 -> [ 8@0 12@0 ]  48 -> [ 0@0 4@0 ]  49 -> [ 0@0 4@0 ]  50 -> [ 0@0 4@0 ]  51 -> [ 0@0 4@0 ]  52 -> [ 28@0 ]  53 -> [ 28@0 ]  54 -> [ 28@0 ]  55 -> [ 28@0 ]  60 -> [ 20@0 ]  61 -> [ 20@0 ]  62 -> [ 20@0 ]  63 -> [ 20@0 ]  ].
10 | network_0/router_level1_18/vc_allocator | Input grants = [ 0 -> 48  8 -> 40  16 -> 36  20 -> 60  28 -> 52  ], output grants = [ 36 -> 16  40 -> 8  48 -> 0  52 -> 28  60 -> 20  ].
10 | network_0/router_level1_18 | Assigning VC 0 at output 12 to VC 0 at input 0.
10 | network_0/router_level1_18 | Completed VC allocation for VC 0 at input 0 (front: 10).
10 | network_0/router_level1_18 |   Acquiring assigned VC 0 at output 12.
10 | network_0/router_level1_18/buf_0/vc_0 | Changing state from vc_alloc to active.
10 | network_0/router_level1_21 | Adding flit 9 to VC 0 at input 0 (state: idle, empty).
10 | network_0/router_level1_21 | Using precomputed lookahead routing information for VC 0 at input 0 (front: 9).
10 | network_0/router_level1_21/buf_0/vc_0 | Changing state from idle to vc_alloc.
10 | network_0/router_level1_21 | Beginning VC allocation for VC 0 at input 0 (front: 9).
10 | network_0/router_level1_21 |   Requesting VC 0 at output 8 (in_pri: 0, out_pri: 0).
10 | network_0/router_level1_21 |   Requesting VC 1 at output 8 (in_pri: 0, out_pri: 0).
10 | network_0/router_level1_21 |   Requesting VC 2 at output 8 (in_pri: 0, out_pri: 0).
10 | network_0/router_level1_21 |   Requesting VC 3 at output 8 (in_pri: 0, out_pri: 0).
10 | network_0/router_level1_21/vc_allocator | Input requests = [ 0 -> [ 32@0 33@0 34@0 35@0 ]  4 -> [ 40@0 41@0 42@0 43@0 ]  28 -> [ 56@0 57@0 58@0 59@0 ]  ], output requests = [ 32 -> [ 0@0 ]  33 -> [ 0@0 ]  34 -> [ 0@0 ]  35 -> [ 0@0 ]  40 -> [ 4@0 ]  41 -> [ 4@0 ]  42 -> [ 4@0 ]  43 -> [ 4@0 ]  56 -> [ 28@0 ]  57 -> [ 28@0 ]  58 -> [ 28@0 ]  59 -> [ 28@0 ]  ].
10 | network_0/router_level1_21/vc_allocator | Input grants = [ 0 -> 32  4 -> 40  28 -> 56  ], output grants = [ 32 -> 0  40 -> 4  56 -> 28  ].
10 | network_0/router_level1_21 | Assigning VC 0 at output 8 to VC 0 at input 0.
10 | network_0/router_level1_21 | Completed VC allocation for VC 0 at input 0 (front: 9).
10 | network_0/router_level1_21 |   Acquiring assigned VC 0 at output 8.
10 | network_0/router_level1_21/buf_0/vc_0 | Changing state from vc_alloc to active.
10 | network_0/router_level1_30 | Adding flit 1 to VC 0 at input 0 (state: idle, empty).
10 | network_0/router_level1_30 | Using precomputed lookahead routing information for VC 0 at input 0 (front: 1).
10 | network_0/router_level1_30/buf_0/vc_0 | Changing state from idle to vc_alloc.
10 | network_0/router_level1_30 | Beginning VC allocation for VC 0 at input 0 (front: 1).
10 | network_0/router_level1_30 |   Requesting VC 0 at output 9 (in_pri: 0, out_pri: 0).
10 | network_0/router_level1_30 |   Requesting VC 1 at output 9 (in_pri: 0, out_pri: 0).
10 | network_0/router_level1_30 |   Requesting VC 2 at output 9 (in_pri: 0, out_pri: 0).
10 | network_0/router_level1_30 |   Requesting VC 3 at output 9 (in_pri: 0, out_pri: 0).
10 | network_0/router_level1_30/vc_allocator | Input requests = [ 0 -> [ 36@0 37@0 38@0 39@0 ]  4 -> [ 60@0 61@0 62@0 63@0 ]  20 -> [ 32@0 33@0 34@0 35@0 ]  ], output requests = [ 32 -> [ 20@0 ]  33 -> [ 20@0 ]  34 -> [ 20@0 ]  35 -> [ 20@0 ]  36 -> [ 0@0 ]  37 -> [ 0@0 ]  38 -> [ 0@0 ]  39 -> [ 0@0 ]  60 -> [ 4@0 ]  61 -> [ 4@0 ]  62 -> [ 4@0 ]  63 -> [ 4@0 ]  ].
10 | network_0/router_level1_30/vc_allocator | Input grants = [ 0 -> 36  4 -> 60  20 -> 32  ], output grants = [ 32 -> 20  36 -> 0  60 -> 4  ].
10 | network_0/router_level1_30 | Assigning VC 0 at output 9 to VC 0 at input 0.
10 | network_0/router_level1_30 | Completed VC allocation for VC 0 at input 0 (front: 1).
10 | network_0/router_level1_30 |   Acquiring assigned VC 0 at output 9.
10 | network_0/router_level1_30/buf_0/vc_0 | Changing state from vc_alloc to active.
10 | network_0/router_level1_32 | Adding flit 3 to VC 0 at input 0 (state: idle, empty).
10 | network_0/router_level1_32 | Using precomputed lookahead routing information for VC 0 at input 0 (front: 3).
10 | network_0/router_level1_32/buf_0/vc_0 | Changing state from idle to vc_alloc.
10 | network_0/router_level1_32 | Beginning VC allocation for VC 0 at input 0 (front: 3).
10 | network_0/router_level1_32 |   Requesting VC 0 at output 13 (in_pri: 0, out_pri: 0).
10 | network_0/router_level1_32 |   Requesting VC 1 at output 13 (in_pri: 0, out_pri: 0).
10 | network_0/router_level1_32 |   Requesting VC 2 at output 13 (in_pri: 0, out_pri: 0).
10 | network_0/router_level1_32 |   Requesting VC 3 at output 13 (in_pri: 0, out_pri: 0).
10 | network_0/router_level1_32/vc_allocator | Input requests = [ 0 -> [ 52@0 53@0 54@0 55@0 ]  16 -> [ 40@0 41@0 42@0 43@0 ]  20 -> [ 44@0 45@0 46@0 47@0 ]  28 -> [ 40@0 41@0 42@0 43@0 ]  ], output requests = [ 40 -> [ 16@0 28@0 ]  41 -> [ 16@0 28@0 ]  42 -> [ 16@0 28@0 ]  43 -> [ 16@0 28@0 ]  44 -> [ 20@0 ]  45 -> [ 20@0 ]  46 -> [ 20@0 ]  47 -> [ 20@0 ]  52 -> [ 0@0 ]  53 -> [ 0@0 ]  54 -> [ 0@0 ]  55 -> [ 0@0 ]  ].
10 | network_0/router_level1_32/vc_allocator | Input grants = [ 0 -> 52  16 -> 40  20 -> 44  ], output grants = [ 40 -> 16  44 -> 20  52 -> 0  ].
10 | network_0/router_level1_32 | Assigning VC 0 at output 13 to VC 0 at input 0.
10 | network_0/router_level1_32 | Completed VC allocation for VC 0 at input 0 (front: 3).
10 | network_0/router_level1_32 |   Acquiring assigned VC 0 at output 13.
10 | network_0/router_level1_32/buf_0/vc_0 | Changing state from vc_alloc to active.
10 | network_0/router_level1_57 | Adding flit 2 to VC 0 at input 0 (state: idle, empty).
10 | network_0/router_level1_57 | Using precomputed lookahead routing information for VC 0 at input 0 (front: 2).
10 | network_0/router_level1_57/buf_0/vc_0 | Changing state from idle to vc_alloc.
10 | network_0/router_level1_57 | Beginning VC allocation for VC 0 at input 0 (front: 2).
10 | network_0/router_level1_57 |   Requesting VC 0 at output 15 (in_pri: 0, out_pri: 0).
10 | network_0/router_level1_57 |   Requesting VC 1 at output 15 (in_pri: 0, out_pri: 0).
10 | network_0/router_level1_57 |   Requesting VC 2 at output 15 (in_pri: 0, out_pri: 0).
10 | network_0/router_level1_57 |   Requesting VC 3 at output 15 (in_pri: 0, out_pri: 0).
10 | network_0/router_level1_57/vc_allocator | Input requests = [ 0 -> [ 60@0 61@0 62@0 63@0 ]  12 -> [ 32@0 33@0 34@0 35@0 ]  28 -> [ 44@0 45@0 46@0 47@0 ]  ], output requests = [ 32 -> [ 12@0 ]  33 -> [ 12@0 ]  34 -> [ 12@0 ]  35 -> [ 12@0 ]  44 -> [ 28@0 ]  45 -> [ 28@0 ]  46 -> [ 28@0 ]  47 -> [ 28@0 ]  60 -> [ 0@0 ]  61 -> [ 0@0 ]  62 -> [ 0@0 ]  63 -> [ 0@0 ]  ].
10 | network_0/router_level1_57/vc_allocator | Input grants = [ 0 -> 60  12 -> 32  28 -> 44  ], output grants = [ 32 -> 12  44 -> 28  60 -> 0  ].
10 | network_0/router_level1_57 | Assigning VC 0 at output 15 to VC 0 at input 0.
10 | network_0/router_level1_57 | Completed VC allocation for VC 0 at input 0 (front: 2).
10 | network_0/router_level1_57 |   Acquiring assigned VC 0 at output 15.
10 | network_0/router_level1_57/buf_0/vc_0 | Changing state from vc_alloc to active.
10 | network_0/network_0_fchan_12342 | Completed channel traversal for flit 4.
10 | network_0/network_0_fchan_12346 | Completed channel traversal for flit 5.
11 | network_0/router_level1_23 | Received flit 5 from channel at input 0.
11 | network_0/router_level1_54 | Received flit 4 from channel at input 0.
11 | network_0/router_level1_9 | Beginning switch allocation for VC 0 at input 0 (front: 6).
11 | network_0/router_level1_9 |   Requesting output 9.0 (non-spec, pri: 0).
11 | network_0/router_level1_9/sw_allocator | Input requests = [ 0 -> [ 9@0 ]  1 -> [ 10@0 ]  ], output requests = [ 9 -> [ 0@0 ]  10 -> [ 1@0 ]  ].
11 | network_0/router_level1_9/sw_allocator | Input grants = [ 0 -> 9  1 -> 10  ], output grants = [ 9 -> 0  10 -> 1  ].
11 | network_0/router_level1_9 | Assigning output 9.0 to VC 0 at input 0.0.
11 | network_0/router_level1_9 | Completed switch allocation for VC 0 at input 0 (front: 6).
11 | network_0/router_level1_9 |   Scheduling switch connection from input 0.0 to output 9.0.
11 | network_0/router_level1_9 | Updating lookahead routing information for flit 6.
11 | network_0/router_level1_14 | Beginning switch allocation for VC 0 at input 0 (front: 7).
11 | network_0/router_level1_14 |   Requesting output 11.0 (non-spec, pri: 0).
11 | network_0/router_level1_14/sw_allocator | Input requests = [ 0 -> [ 11@0 ]  3 -> [ 8@0 ]  4 -> [ 10@0 ]  5 -> [ 15@0 ]  ], output requests = [ 8 -> [ 3@0 ]  10 -> [ 4@0 ]  11 -> [ 0@0 ]  15 -> [ 5@0 ]  ].
11 | network_0/router_level1_14/sw_allocator | Input grants = [ 0 -> 11  3 -> 8  4 -> 10  5 -> 15  ], output grants = [ 8 -> 3  10 -> 4  11 -> 0  15 -> 5  ].
11 | network_0/router_level1_14 | Assigning output 11.0 to VC 0 at input 0.0.
11 | network_0/router_level1_14 | Completed switch allocation for VC 0 at input 0 (front: 7).
11 | network_0/router_level1_14 |   Scheduling switch connection from input 0.0 to output 11.0.
11 | network_0/router_level1_14 | Updating lookahead routing information for flit 7.
11 | network_0/router_level1_16 | Beginning switch allocation for VC 0 at input 0 (front: 8).
11 | network_0/router_level1_16 |   Requesting output 12.0 (non-spec, pri: 0).
11 | network_0/router_level1_16/sw_allocator | Input requests = [ 0 -> [ 12@0 ]  2 -> [ 9@0 ]  3 -> [ 14@0 ]  5 -> [ 13@0 ]  6 -> [ 11@0 ]  ], output requests = [ 9 -> [ 2@0 ]  11 -> [ 6@0 ]  12 -> [ 0@0 ]  13 -> [ 5@0 ]  14 -> [ 3@0 ]  ].
11 | network_0/router_level1_16/sw_allocator | Input grants = [ 0 -> 12  2 -> 9  3 -> 14  5 -> 13  6 -> 11  ], output grants = [ 9 -> 2  11 -> 6  12 -> 0  13 -> 5  14 -> 3  ].
11 | network_0/router_level1_16 | Assigning output 12.0 to VC 0 at input 0.0.
11 | network_0/router_level1_16 | Completed switch allocation for VC 0 at input 0 (front: 8).
11 | network_0/router_level1_16 |   Scheduling switch connection from input 0.0 to output 12.0.
11 | network_0/router_level1_16 | Updating lookahead routing information for flit 8.
11 | network_0/router_level1_18 | Beginning switch allocation for VC 0 at input 0 (front: 10).
11 | network_0/router_level1_18 |   Requesting output 12.0 (non-spec, pri: 0).
11 | network_0/router_level1_18/sw_allocator | Input requests = [ 0 -> [ 12@0 ]  2 -> [ 10@0 ]  4 -> [ 9@0 ]  5 -> [ 15@0 ]  7 -> [ 13@0 ]  ], output requests = [ 9 -> [ 4@0 ]  10 -> [ 2@0 ]  12 -> [ 0@0 ]  13 -> [ 7@0 ]  15 -> [ 5@0 ]  ].
11 | network_0/router_level1_18/sw_allocator | Input grants = [ 0 -> 12  2 -> 10  4 -> 9  5 -> 15  7 -> 13  ], output grants = [ 9 -> 4  10 -> 2  12 -> 0  13 -> 7  15 -> 5  ].
11 | network_0/router_level1_18 | Assigning output 12.0 to VC 0 at input 0.0.
[...]
27 | network_0/router_level3_510 |   Acquiring assigned VC 0 at output 7.
27 | network_0/router_level3_510/buf_15/vc_0 | Changing state from vc_alloc to active.
27 | network_0/router_level3_510 | Completed switch allocation for VC 0 at input 8 (front: 8).
27 | network_0/router_level3_510 |   Scheduling switch connection from input 8.0 to output 3.0.
27 | network_0/router_level3_510 | Completed switch allocation for VC 0 at input 9 (front: 6).
27 | network_0/router_level3_510 |   Scheduling switch connection from input 9.0 to output 6.0.
27 | network_0/router_level3_510 | Completed switch allocation for VC 0 at input 10 (front: 10).
27 | network_0/router_level3_510 |   Scheduling switch connection from input 10.0 to output 1.0.
27 | network_0/router_level3_510 | Completed switch allocation for VC 0 at input 13 (front: 9).
27 | network_0/router_level3_510 |   Scheduling switch connection from input 13.0 to output 2.0.
27 | network_0/router_level3_510 | Completed switch allocation for VC 0 at input 14 (front: 7).
27 | network_0/router_level3_510 |   Scheduling switch connection from input 14.0 to output 4.0.
27 | network_0/router_level3_511 | Adding flit 4 to VC 1 at input 14 (state: idle, empty).
27 | network_0/router_level3_511 | Using precomputed lookahead routing information for VC 1 at input 14 (front: 4).
27 | network_0/router_level3_511/buf_14/vc_1 | Changing state from idle to vc_alloc.
27 | network_0/router_level3_511 | Beginning VC allocation for VC 1 at input 14 (front: 4).
27 | network_0/router_level3_511 |   Requesting VC 0 at output 2 (in_pri: 0, out_pri: 0).
27 | network_0/router_level3_511 |   Requesting VC 1 at output 2 (in_pri: 0, out_pri: 0).
27 | network_0/router_level3_511 |   Requesting VC 2 at output 2 (in_pri: 0, out_pri: 0).
27 | network_0/router_level3_511 |   Requesting VC 3 at output 2 (in_pri: 0, out_pri: 0).
27 | network_0/router_level3_511/vc_allocator | Input requests = [ 1 -> [ 61@0 62@0 63@0 ]  2 -> [ 59@0 ]  5 -> [ 59@0 ]  7 -> [ 61@0 62@0 63@0 ]  8 -> [ 61@0 62@0 63@0 ]  9 -> [ 52@0 53@0 54@0 55@0 ]  12 -> [ 61@0 62@0 63@0 ]  14 -> [ 48@0 49@0 50@0 ]  20 -> [ 59@0 ]  22 -> [ 59@0 ]  25 -> [ 61@0 62@0 63@0 ]  30 -> [ 59@0 ]  33 -> [ 21@0 22@0 23@0 ]  40 -> [ 13@0 14@0 15@0 ]  48 -> [ 17@0 18@0 19@0 ]  52 -> [ 28@0 29@0 30@0 31@0 ]  57 -> [ 8@0 9@0 10@0 11@0 ]  61 -> [ 25@0 26@0 27@0 ]  ], output requests = [ 8 -> [ 57@0 ]  9 -> [ 57@0 ]  10 -> [ 57@0 ]  11 -> [ 57@0 ]  13 -> [ 40@0 ]  14 -> [ 40@0 ]  15 -> [ 40@0 ]  17 -> [ 48@0 ]  18 -> [ 48@0 ]  19 -> [ 48@0 ]  21 -> [ 33@0 ]  22 -> [ 33@0 ]  23 -> [ 33@0 ]  25 -> [ 61@0 ]  26 -> [ 61@0 ]  27 -> [ 61@0 ]  28 -> [ 52@0 ]  29 -> [ 52@0 ]  30 -> [ 52@0 ]  31 -> [ 52@0 ]  48 -> [ 14@0 ]  49 -> [ 14@0 ]  50 -> [ 14@0 ]  52 -> [ 9@0 ]  53 -> [ 9@0 ]  54 -> [ 9@0 ]  55 -> [ 9@0 ]  59 -> [ 2@0 5@0 20@0 22@0 30@0 ]  61 -> [ 1@0 7@0 8@0 12@0 25@0 ]  62 -> [ 1@0 7@0 8@0 12@0 25@0 ]  63 -> [ 1@0 7@0 8@0 12@0 25@0 ]  ].
27 | network_0/router_level3_511/vc_allocator | Input grants = [ 7 -> 61  9 -> 52  14 -> 49  20 -> 59  33 -> 21  40 -> 13  48 -> 17  52 -> 28  57 -> 8  61 -> 25  ], output grants = [ 8 -> 57  13 -> 40  17 -> 48  21 -> 33  25 -> 61  28 -> 52  49 -> 14  52 -> 9  59 -> 20  61 -> 7  ].
27 | network_0/router_level3_511 | Assigning VC 0 at output 2 to VC 1 at input 14.
27 | network_0/router_level3_511 | Beginning switch allocation for VC 0 at input 8 (front: 3).
27 | network_0/router_level3_511 |   Requesting output 3.0 (non-spec, pri: 0).
27 | network_0/router_level3_511 | Beginning switch allocation for VC 0 at input 9 (front: 2).
27 | network_0/router_level3_511 |   Requesting output 4.0 (non-spec, pri: 0).
27 | network_0/router_level3_511 | Beginning switch allocation for VC 0 at input 14 (front: 1).
27 | network_0/router_level3_511 |   Requesting output 5.0 (non-spec, pri: 0).
27 | network_0/router_level3_511/sw_allocator | Input requests = [ 0 -> [ 9@0 ]  1 -> [ 15@0 ]  3 -> [ 8@0 ]  4 -> [ 8@0 11@0 ]  5 -> [ 14@0 ]  6 -> [ 10@0 12@0 14@0 ]  7 -> [ 10@0 11@0 14@0 ]  8 -> [ 3@0 ]  9 -> [ 4@0 ]  14 -> [ 5@0 ]  15 -> [ 6@0 ]  ], output requests = [ 3 -> [ 8@0 ]  4 -> [ 9@0 ]  5 -> [ 14@0 ]  6 -> [ 15@0 ]  8 -> [ 3@0 4@0 ]  9 -> [ 0@0 ]  10 -> [ 6@0 7@0 ]  11 -> [ 4@0 7@0 ]  12 -> [ 6@0 ]  14 -> [ 5@0 6@0 7@0 ]  15 -> [ 1@0 ]  ].
27 | network_0/router_level3_511/sw_allocator | Input grants = [ 0 -> 9  1 -> 15  3 -> 8  5 -> 14  8 -> 3  9 -> 4  14 -> 5  15 -> 6  ], output grants = [ 3 -> 8  4 -> 9  5 -> 14  6 -> 15  8 -> 3  9 -> 0  14 -> 5  15 -> 1  ].
27 | network_0/router_level3_511 | Assigning output 3.0 to VC 0 at input 8.0.
27 | network_0/router_level3_511 | Assigning output 4.0 to VC 0 at input 9.0.
27 | network_0/router_level3_511 | Assigning output 5.0 to VC 0 at input 14.0.
27 | network_0/router_level3_511 | Completed VC allocation for VC 1 at input 14 (front: 4).
27 | network_0/router_level3_511 |   Acquiring assigned VC 0 at output 2.
27 | network_0/router_level3_511/buf_14/vc_1 | Changing state from vc_alloc to active.
27 | network_0/router_level3_511 | Completed switch allocation for VC 0 at input 8 (front: 3).
27 | network_0/router_level3_511 |   Scheduling switch connection from input 8.0 to output 3.0.
27 | network_0/router_level3_511 | Completed switch allocation for VC 0 at input 9 (front: 2).
27 | network_0/router_level3_511 |   Scheduling switch connection from input 9.0 to output 4.0.
27 | network_0/router_level3_511 | Completed switch allocation for VC 0 at input 14 (front: 1).
27 | network_0/router_level3_511 |   Scheduling switch connection from input 14.0 to output 5.0.
28 | network_0/router_level3_510 | Beginning switch allocation for VC 0 at input 15 (front: 5).
28 | network_0/router_level3_510 |   Requesting output 7.0 (non-spec, pri: 0).
28 | network_0/router_level3_510/sw_allocator | Input requests = [ 0 -> [ 10@0 15@0 ]  1 -> [ 12@0 13@0 14@0 ]  2 -> [ 13@0 14@0 ]  3 -> [ 13@0 14@0 15@0 ]  4 -> [ 11@0 12@0 ]  5 -> [ 8@0 10@0 ]  6 -> [ 9@0 ]  7 -> [ 9@0 11@0 ]  8 -> [ 3@0 ]  11 -> [ 6@0 ]  12 -> [ 2@0 ]  15 -> [ 7@0 ]  ], output requests = [ 2 -> [ 12@0 ]  3 -> [ 8@0 ]  6 -> [ 11@0 ]  7 -> [ 15@0 ]  8 -> [ 5@0 ]  9 -> [ 6@0 7@0 ]  10 -> [ 0@0 5@0 ]  11 -> [ 4@0 7@0 ]  12 -> [ 1@0 4@0 ]  13 -> [ 1@0 2@0 3@0 ]  14 -> [ 1@0 2@0 3@0 ]  15 -> [ 0@0 3@0 ]  ].
28 | network_0/router_level3_510/sw_allocator | Input grants = [ 0 -> 15  1 -> 14  2 -> 13  4 -> 12  5 -> 8  6 -> 9  7 -> 11  8 -> 3  11 -> 6  12 -> 2  15 -> 7  ], output grants = [ 2 -> 12  3 -> 8  6 -> 11  7 -> 15  8 -> 5  9 -> 6  11 -> 7  12 -> 4  13 -> 2  14 -> 1  15 -> 0  ].
28 | network_0/router_level3_510 | Assigning output 7.0 to VC 0 at input 15.0.
28 | network_0/router_level3_510 | Beginning crossbar traversal for flit 8 from input 8.0 to output 3.0.
28 | network_0/router_level3_510 | Beginning crossbar traversal for flit 6 from input 9.0 to output 6.0.
28 | network_0/router_level3_510 | Beginning crossbar traversal for flit 10 from input 10.0 to output 1.0.
28 | network_0/router_level3_510 | Beginning crossbar traversal for flit 9 from input 13.0 to output 2.0.
28 | network_0/router_level3_510 | Beginning crossbar traversal for flit 7 from input 14.0 to output 4.0.
28 | network_0/router_level3_510 | Completed switch allocation for VC 0 at input 15 (front: 5).
28 | network_0/router_level3_510 |   Scheduling switch connection from input 15.0 to output 7.0.
28 | network_0/router_level3_510 | Completed crossbar traversal for flit 8 from input 8.0 to output 3.0.
28 | network_0/router_level3_510 | Buffering flit 8 at output 3.
28 | network_0/router_level3_510 | Completed crossbar traversal for flit 6 from input 9.0 to output 6.0.
28 | network_0/router_level3_510 | Buffering flit 6 at output 6.
28 | network_0/router_level3_510 | Completed crossbar traversal for flit 10 from input 10.0 to output 1.0.
28 | network_0/router_level3_510 | Buffering flit 10 at output 1.
28 | network_0/router_level3_510 | Completed crossbar traversal for flit 9 from input 13.0 to output 2.0.
28 | network_0/router_level3_510 | Buffering flit 9 at output 2.
28 | network_0/router_level3_510 | Completed crossbar traversal for flit 7 from input 14.0 to output 4.0.
28 | network_0/router_level3_510 | Buffering flit 7 at output 4.
28 | network_0/router_level3_511 | Beginning switch allocation for VC 1 at input 14 (front: 4).
28 | network_0/router_level3_511 |   Requesting output 2.0 (non-spec, pri: 0).
28 | network_0/router_level3_511/sw_allocator | Input requests = [ 1 -> [ 15@0 ]  2 -> [ 13@0 ]  3 -> [ 12@0 ]  4 -> [ 8@0 11@0 ]  5 -> [ 14@0 ]  6 -> [ 10@0 12@0 14@0 ]  7 -> [ 10@0 11@0 14@0 ]  8 -> [ 5@0 ]  10 -> [ 3@0 ]  12 -> [ 4@0 ]  13 -> [ 7@0 ]  14 -> [ 2@0 ]  15 -> [ 6@0 ]  ], output requests = [ 2 -> [ 14@0 ]  3 -> [ 10@0 ]  4 -> [ 12@0 ]  5 -> [ 8@0 ]  6 -> [ 15@0 ]  7 -> [ 13@0 ]  8 -> [ 4@0 ]  10 -> [ 6@0 7@0 ]  11 -> [ 4@0 7@0 ]  12 -> [ 3@0 6@0 ]  13 -> [ 2@0 ]  14 -> [ 5@0 6@0 7@0 ]  15 -> [ 1@0 ]  ].
28 | network_0/router_level3_511/sw_allocator | Input grants = [ 1 -> 15  2 -> 13  3 -> 12  4 -> 8  6 -> 14  8 -> 5  10 -> 3  12 -> 4  13 -> 7  14 -> 2  15 -> 6  ], output grants = [ 2 -> 14  3 -> 10  4 -> 12  5 -> 8  6 -> 15  7 -> 13  8 -> 4  12 -> 3  13 -> 2  14 -> 6  15 -> 1  ].
28 | network_0/router_level3_511 | Assigning output 2.0 to VC 1 at input 14.0.
28 | network_0/router_level3_511 | Beginning crossbar traversal for flit 3 from input 8.0 to output 3.0.
28 | network_0/router_level3_511 | Beginning crossbar traversal for flit 2 from input 9.0 to output 4.0.
28 | network_0/router_level3_511 | Beginning crossbar traversal for flit 1 from input 14.0 to output 5.0.
28 | network_0/router_level3_511 | Completed switch allocation for VC 1 at input 14 (front: 4).
28 | network_0/router_level3_511 |   Scheduling switch connection from input 14.0 to output 2.0.
28 | network_0/router_level3_511 | Completed crossbar traversal for flit 3 from input 8.0 to output 3.0.
28 | network_0/router_level3_511 | Buffering flit 3 at output 3.
28 | network_0/router_level3_511 | Completed crossbar traversal for flit 2 from input 9.0 to output 4.0.
28 | network_0/router_level3_511 | Buffering flit 2 at output 4.
28 | network_0/router_level3_511 | Completed crossbar traversal for flit 1 from input 14.0 to output 5.0.
28 | network_0/router_level3_511 | Buffering flit 1 at output 5.
28 | network_0/router_level3_510 | Sending flit 10 to channel at output 1.
28 | network_0/router_level3_510 | Sending flit 9 to channel at output 2.
28 | network_0/router_level3_510 | Sending flit 8 to channel at output 3.
28 | network_0/router_level3_510 | Sending flit 7 to channel at output 4.
28 | network_0/router_level3_510 | Sending flit 6 to channel at output 6.
28 | network_0/router_level3_511 | Sending flit 3 to channel at output 3.
28 | network_0/router_level3_511 | Sending flit 2 to channel at output 4.
28 | network_0/router_level3_511 | Sending flit 1 to channel at output 5.
29 | network_0/network_0_fchan_egress4081 | Beginning channel traversal for flit 10 with delay 1.
29 | network_0/network_0_fchan_egress4082 | Beginning channel traversal for flit 9 with delay 1.
29 | network_0/network_0_fchan_egress4083 | Beginning channel traversal for flit 8 with delay 1.
29 | network_0/network_0_fchan_egress4084 | Beginning channel traversal for flit 7 with delay 1.
29 | network_0/network_0_fchan_egress4086 | Beginning channel traversal for flit 6 with delay 1.
29 | network_0/network_0_fchan_egress4091 | Beginning channel traversal for flit 3 with delay 1.
29 | network_0/network_0_fchan_egress4092 | Beginning channel traversal for flit 2 with delay 1.
29 | network_0/network_0_fchan_egress4093 | Beginning channel traversal for flit 1 with delay 1.
29 | network_0/router_level3_510 | Beginning crossbar traversal for flit 5 from input 15.0 to output 7.0.
29 | network_0/router_level3_510 | Completed crossbar traversal for flit 5 from input 15.0 to output 7.0.
29 | network_0/router_level3_510 | Buffering flit 5 at output 7.
29 | network_0/router_level3_511 | Beginning crossbar traversal for flit 4 from input 14.0 to output 2.0.
29 | network_0/router_level3_511 | Completed crossbar traversal for flit 4 from input 14.0 to output 2.0.
29 | network_0/router_level3_511 | Buffering flit 4 at output 2.
29 | network_0/network_0_fchan_egress4081 | Completed channel traversal for flit 10.
29 | network_0/network_0_fchan_egress4082 | Completed channel traversal for flit 9.
29 | network_0/network_0_fchan_egress4083 | Completed channel traversal for flit 8.
29 | network_0/network_0_fchan_egress4084 | Completed channel traversal for flit 7.
29 | network_0/network_0_fchan_egress4086 | Completed channel traversal for flit 6.
29 | network_0/network_0_fchan_egress4091 | Completed channel traversal for flit 3.
29 | network_0/network_0_fchan_egress4092 | Completed channel traversal for flit 2.
29 | network_0/network_0_fchan_egress4093 | Completed channel traversal for flit 1.
29 | network_0/router_level3_510 | Sending flit 5 to channel at output 7.
29 | network_0/router_level3_511 | Sending flit 4 to channel at output 2.
30 | node4081 | Ejecting flit 10 (packet 10) from VC 0.
30 | node4082 | Ejecting flit 9 (packet 9) from VC 0.
30 | node4083 | Ejecting flit 8 (packet 8) from VC 0.
30 | node4084 | Ejecting flit 7 (packet 7) from VC 0.
30 | node4086 | Ejecting flit 6 (packet 6) from VC 0.
30 | node4091 | Ejecting flit 3 (packet 3) from VC 0.
30 | node4092 | Ejecting flit 2 (packet 2) from VC 0.
30 | node4093 | Ejecting flit 1 (packet 1) from VC 0.
30 | network_0/network_0_fchan_egress4087 | Beginning channel traversal for flit 5 with delay 1.
30 | network_0/network_0_fchan_egress4090 | Beginning channel traversal for flit 4 with delay 1.
30 | node4081 | Injecting credit for VC 0 into subnet 0.
30 | node4081 | Retiring flit 10 (packet 10, src = 14, dest = 4081, hops = 7, flat = 30).
30 | node4081 | Retiring packet 10 (plat = 30, nlat = 30, frag = 0, src = 14, dest = 4081).
30 | node4082 | Injecting credit for VC 0 into subnet 0.
30 | node4082 | Retiring flit 9 (packet 9, src = 13, dest = 4082, hops = 7, flat = 30).
30 | node4082 | Retiring packet 9 (plat = 30, nlat = 30, frag = 0, src = 13, dest = 4082).
30 | node4083 | Injecting credit for VC 0 into subnet 0.
30 | node4083 | Retiring flit 8 (packet 8, src = 12, dest = 4083, hops = 7, flat = 30).
30 | node4083 | Retiring packet 8 (plat = 30, nlat = 30, frag = 0, src = 12, dest = 4083).
30 | node4084 | Injecting credit for VC 0 into subnet 0.
30 | node4084 | Retiring flit 7 (packet 7, src = 11, dest = 4084, hops = 7, flat = 30).
30 | node4084 | Retiring packet 7 (plat = 30, nlat = 30, frag = 0, src = 11, dest = 4084).
30 | node4086 | Injecting credit for VC 0 into subnet 0.
30 | node4086 | Retiring flit 6 (packet 6, src = 9, dest = 4086, hops = 7, flat = 30).
30 | node4086 | Retiring packet 6 (plat = 30, nlat = 30, frag = 0, src = 9, dest = 4086).
30 | node4091 | Injecting credit for VC 0 into subnet 0.
30 | node4091 | Retiring flit 3 (packet 3, src = 4, dest = 4091, hops = 7, flat = 30).
30 | node4091 | Retiring packet 3 (plat = 30, nlat = 30, frag = 0, src = 4, dest = 4091).
30 | node4092 | Injecting credit for VC 0 into subnet 0.
30 | node4092 | Retiring flit 2 (packet 2, src = 3, dest = 4092, hops = 7, flat = 30).
30 | node4092 | Retiring packet 2 (plat = 30, nlat = 30, frag = 0, src = 3, dest = 4092).
30 | node4093 | Injecting credit for VC 0 into subnet 0.
30 | node4093 | Retiring flit 1 (packet 1, src = 2, dest = 4093, hops = 7, flat = 30).
30 | node4093 | Retiring packet 1 (plat = 30, nlat = 30, frag = 0, src = 2, dest = 4093).
30 | network_0/network_0_fchan_egress4087 | Completed channel traversal for flit 5.
30 | network_0/network_0_fchan_egress4090 | Completed channel traversal for flit 4.
31 | node4087 | Ejecting flit 5 (packet 5) from VC 0.
31 | node4090 | Ejecting flit 4 (packet 4) from VC 0.
31 | node4087 | Injecting credit for VC 0 into subnet 0.
31 | node4087 | Retiring flit 5 (packet 5, src = 8, dest = 4087, hops = 7, flat = 31).
31 | node4087 | Retiring packet 5 (plat = 31, nlat = 31, frag = 0, src = 8, dest = 4087).
31 | node4090 | Injecting credit for VC 0 into subnet 0.
31 | node4090 | Retiring flit 4 (packet 4, src = 5, dest = 4090, hops = 7, flat = 31).
31 | node4090 | Retiring packet 4 (plat = 31, nlat = 31, frag = 0, src = 5, dest = 4090).
Class 0:
Packet latency average = 131.181
	minimum = 30
	maximum = 437
Network latency average = 130.441
	minimum = 30
	maximum = 437
Slowest packet = 1663945
Flit latency average = 130.441
	minimum = 30
	maximum = 437
Slowest flit = 1663945
Fragmentation average = 0
	minimum = 0
	maximum = 0
Injected packet rate average = 0.734815
	minimum = 0.69 (at node 1855)
	maximum = 0.771 (at node 950)
Accepted packet rate average = 0.595222
	minimum = 0.552 (at node 1785)
	maximum = 0.636 (at node 74)
Injected flit rate average = 0.734815
	minimum = 0.69 (at node 1855)
	maximum = 0.771 (at node 950)
Accepted flit rate average= 0.595222
	minimum = 0.552 (at node 1785)
	maximum = 0.636 (at node 74)
Injected packet length average = 1
Accepted packet length average = 1
Total in-flight flits = 572788 (0 measured)
latency change    = 1
throughput change = 1
Class 0:
Packet latency average = 205.664
	minimum = 30
	maximum = 634
Network latency average = 180.435
	minimum = 30
	maximum = 558
Slowest packet = 2048067
Flit latency average = 180.435
	minimum = 30
	maximum = 558
Slowest flit = 3612589
Fragmentation average = 0
	minimum = 0
	maximum = 0
Injected packet rate average = 0.701833
	minimum = 0.6555 (at node 1475)
	maximum = 0.734 (at node 441)
Accepted packet rate average = 0.621716
	minimum = 0.578 (at node 2715)
	maximum = 0.652 (at node 1933)
Injected flit rate average = 0.701833
	minimum = 0.6555 (at node 1475)
	maximum = 0.734 (at node 441)
Accepted flit rate average= 0.621716
	minimum = 0.578 (at node 2715)
	maximum = 0.652 (at node 1933)
Injected packet length average = 1
Accepted packet length average = 1
Total in-flight flits = 657702 (0 measured)
latency change    = 0.362155
throughput change = 0.042614
Class 0:
Packet latency average = 405.79
	minimum = 125
	maximum = 786
Network latency average = 248.408
	minimum = 77
	maximum = 613
Slowest packet = 5151234
Flit latency average = 248.408
	minimum = 77
	maximum = 613
Slowest flit = 5586638
Fragmentation average = 0
	minimum = 0
	maximum = 0
Injected packet rate average = 0.661282
	minimum = 0.558 (at node 259)
	maximum = 0.716 (at node 2016)
Accepted packet rate average = 0.653949
	minimum = 0.568 (at node 3836)
	maximum = 0.704 (at node 71)
Injected flit rate average = 0.661282
	minimum = 0.558 (at node 259)
	maximum = 0.716 (at node 2016)
Accepted flit rate average= 0.653949
	minimum = 0.568 (at node 3836)
	maximum = 0.704 (at node 71)
Injected packet length average = 1
Accepted packet length average = 1
Total in-flight flits = 687745 (0 measured)
latency change    = 0.493177
throughput change = 0.0492898
Warmed up ...Time used is 3000 cycles
Class 0:
Packet latency average = 543.113
	minimum = 186
	maximum = 952
Network latency average = 252.811
	minimum = 75
	maximum = 610
Slowest packet = 8464235
Flit latency average = 256.682
	minimum = 75
	maximum = 610
Slowest flit = 9292479
Fragmentation average = 0
	minimum = 0
	maximum = 0
Injected packet rate average = 0.660602
	minimum = 0.534 (at node 863)
	maximum = 0.717 (at node 140)
Accepted packet rate average = 0.657061
	minimum = 0.567 (at node 3232)
	maximum = 0.721 (at node 2639)
Injected flit rate average = 0.660602
	minimum = 0.534 (at node 863)
	maximum = 0.717 (at node 140)
Accepted flit rate average= 0.657061
	minimum = 0.567 (at node 3232)
	maximum = 0.721 (at node 2639)
Injected packet length average = 1
Accepted packet length average = 1
Total in-flight flits = 702261 (702261 measured)
latency change    = 0.252845
throughput change = 0.00473597
Average latency for class 0 exceeded 500 cycles. Aborting simulation.
Too many sample periods needed to converge
Simulation unstable, ending ...
Total run time 1063.69
