BEGIN Configuration File: examples/fattree_config_0.20_1_uniform
// $Id: dragonflyconfig 3555 2011-05-16 23:37:55Z dub $

// Copyright (c) 2007-2015, Trustees of The Leland Stanford Junior University
// All rights reserved.
//
// Redistribution and use in source and binary forms, with or without
// modification, are permitted provided that the following conditions are met:
//
// Redistributions of source code must retain the above copyright notice, this
// list of conditions and the following disclaimer.
// Redistributions in binary form must reproduce the above copyright notice,
// this list of conditions and the following disclaimer in the documentation
// and/or other materials provided with the distribution.
//
// THIS SOFTWARE IS PROVIDED BY THE COPYRIGHT HOLDERS AND CONTRIBUTORS "AS IS"
// AND ANY EXPRESS OR IMPLIED WARRANTIES, INCLUDING, BUT NOT LIMITED TO, THE
// IMPLIED WARRANTIES OF MERCHANTABILITY AND FITNESS FOR A PARTICULAR PURPOSE
// ARE DISCLAIMED. IN NO EVENT SHALL THE COPYRIGHT OWNER OR CONTRIBUTORS BE
// LIABLE FOR ANY DIRECT, INDIRECT, INCIDENTAL, SPECIAL, EXEMPLARY, OR
// CONSEQUENTIAL DAMAGES (INCLUDING, BUT NOT LIMITED TO, PROCUREMENT OF
// SUBSTITUTE GOODS OR SERVICES; LOSS OF USE, DATA, OR PROFITS; OR BUSINESS
// INTERRUPTION) HOWEVER CAUSED AND ON ANY THEORY OF LIABILITY, WHETHER IN
// CONTRACT, STRICT LIABILITY, OR TORT (INCLUDING NEGLIGENCE OR OTHERWISE)
// ARISING IN ANY WAY OUT OF THE USE OF THIS SOFTWARE, EVEN IF ADVISED OF THE
// POSSIBILITY OF SUCH DAMAGE.


hold_switch_for_packet=1;

vc_buf_size = 16;


wait_for_tail_credit = 0;

//
// Router architecture
//
vc_allocator = separable_input_first; 
sw_allocator = separable_input_first;
alloc_iters  = 1;

credit_delay   = 2;
routing_delay  = 0;
vc_alloc_delay = 1;
sw_alloc_delay = 1;
st_final_delay = 1;

input_speedup     = 1;
output_speedup    = 1;
internal_speedup  = 1.0;


warmup_periods = 3;
sim_count          = 1;

sample_period  = 1000;  

routing_function = nca;
num_vcs     = 4;

priority = none;
traffic = uniform;


injection_rate = 0.20;
packet_size = 1;
injection_rate_uses_flits=1;

topology = fattree;

k  = 8;
n  = 4;
t = 1;

watch_file = watchfile.txt;
watch_out=-;
stats_out = examples/fattree_config_0.20_1_uniform.m;

END Configuration File: examples/fattree_config_0.20_1_uniform
Fat Tree
 k = 8 levels = 4
 each switch - total radix =  16
 # of switches = 2048
 # of channels = 24576
 # of nodes ( size of network ) = 4096
 tapering factor = 1
0 | node15 | Enqueuing flit 1 (packet 1) at time 0.
0 | node34 | Enqueuing flit 2 (packet 2) at time 0.
0 | node47 | Enqueuing flit 3 (packet 3) at time 0.
0 | node53 | Enqueuing flit 4 (packet 4) at time 0.
0 | node54 | Enqueuing flit 5 (packet 5) at time 0.
0 | node62 | Enqueuing flit 6 (packet 6) at time 0.
0 | node66 | Enqueuing flit 7 (packet 7) at time 0.
0 | node71 | Enqueuing flit 8 (packet 8) at time 0.
0 | node77 | Enqueuing flit 9 (packet 9) at time 0.
0 | node78 | Enqueuing flit 10 (packet 10) at time 0.
0 | traffic_manager | Finding output VC for flit 1:
0 | traffic_manager |   Selected output VC 0.
0 | node15 | Generating lookahead routing info for flit 1.
0 | node15 | Injecting flit 1 into subnet 0 at time 0 with priority 0.
0 | traffic_manager | Finding output VC for flit 2:
0 | traffic_manager |   Selected output VC 0.
0 | node34 | Generating lookahead routing info for flit 2.
0 | node34 | Injecting flit 2 into subnet 0 at time 0 with priority 0.
0 | traffic_manager | Finding output VC for flit 3:
0 | traffic_manager |   Selected output VC 0.
0 | node47 | Generating lookahead routing info for flit 3.
0 | node47 | Injecting flit 3 into subnet 0 at time 0 with priority 0.
0 | traffic_manager | Finding output VC for flit 4:
0 | traffic_manager |   Selected output VC 0.
0 | node53 | Generating lookahead routing info for flit 4.
0 | node53 | Injecting flit 4 into subnet 0 at time 0 with priority 0.
0 | traffic_manager | Finding output VC for flit 5:
0 | traffic_manager |   Selected output VC 0.
0 | node54 | Generating lookahead routing info for flit 5.
0 | node54 | Injecting flit 5 into subnet 0 at time 0 with priority 0.
0 | traffic_manager | Finding output VC for flit 6:
0 | traffic_manager |   Selected output VC 0.
0 | node62 | Generating lookahead routing info for flit 6.
0 | node62 | Injecting flit 6 into subnet 0 at time 0 with priority 0.
0 | traffic_manager | Finding output VC for flit 7:
0 | traffic_manager |   Selected output VC 0.
0 | node66 | Generating lookahead routing info for flit 7.
0 | node66 | Injecting flit 7 into subnet 0 at time 0 with priority 0.
0 | traffic_manager | Finding output VC for flit 8:
0 | traffic_manager |   Selected output VC 0.
0 | node71 | Generating lookahead routing info for flit 8.
0 | node71 | Injecting flit 8 into subnet 0 at time 0 with priority 0.
0 | traffic_manager | Finding output VC for flit 9:
0 | traffic_manager |   Selected output VC 0.
0 | node77 | Generating lookahead routing info for flit 9.
0 | node77 | Injecting flit 9 into subnet 0 at time 0 with priority 0.
0 | traffic_manager | Finding output VC for flit 10:
0 | traffic_manager |   Selected output VC 0.
0 | node78 | Generating lookahead routing info for flit 10.
0 | node78 | Injecting flit 10 into subnet 0 at time 0 with priority 0.
1 | network_0/network_0_fchan_ingress15 | Beginning channel traversal for flit 1 with delay 1.
1 | network_0/network_0_fchan_ingress34 | Beginning channel traversal for flit 2 with delay 1.
1 | network_0/network_0_fchan_ingress47 | Beginning channel traversal for flit 3 with delay 1.
1 | network_0/network_0_fchan_ingress53 | Beginning channel traversal for flit 4 with delay 1.
1 | network_0/network_0_fchan_ingress54 | Beginning channel traversal for flit 5 with delay 1.
1 | network_0/network_0_fchan_ingress62 | Beginning channel traversal for flit 6 with delay 1.
1 | network_0/network_0_fchan_ingress66 | Beginning channel traversal for flit 7 with delay 1.
1 | network_0/network_0_fchan_ingress71 | Beginning channel traversal for flit 8 with delay 1.
1 | network_0/network_0_fchan_ingress77 | Beginning channel traversal for flit 9 with delay 1.
1 | network_0/network_0_fchan_ingress78 | Beginning channel traversal for flit 10 with delay 1.
1 | network_0/network_0_fchan_ingress15 | Completed channel traversal for flit 1.
1 | network_0/network_0_fchan_ingress34 | Completed channel traversal for flit 2.
1 | network_0/network_0_fchan_ingress47 | Completed channel traversal for flit 3.
1 | network_0/network_0_fchan_ingress53 | Completed channel traversal for flit 4.
1 | network_0/network_0_fchan_ingress54 | Completed channel traversal for flit 5.
1 | network_0/network_0_fchan_ingress62 | Completed channel traversal for flit 6.
1 | network_0/network_0_fchan_ingress66 | Completed channel traversal for flit 7.
1 | network_0/network_0_fchan_ingress71 | Completed channel traversal for flit 8.
1 | network_0/network_0_fchan_ingress77 | Completed channel traversal for flit 9.
1 | network_0/network_0_fchan_ingress78 | Completed channel traversal for flit 10.
2 | network_0/router_level3_1 | Received flit 1 from channel at input 7.
2 | network_0/router_level3_4 | Received flit 2 from channel at input 2.
2 | network_0/router_level3_5 | Received flit 3 from channel at input 7.
2 | network_0/router_level3_6 | Received flit 4 from channel at input 5.
2 | network_0/router_level3_6 | Received flit 5 from channel at input 6.
2 | network_0/router_level3_7 | Received flit 6 from channel at input 6.
2 | network_0/router_level3_8 | Received flit 7 from channel at input 2.
2 | network_0/router_level3_8 | Received flit 8 from channel at input 7.
2 | network_0/router_level3_9 | Received flit 9 from channel at input 5.
2 | network_0/router_level3_9 | Received flit 10 from channel at input 6.
2 | network_0/router_level3_1 | Adding flit 1 to VC 0 at input 7 (state: idle, empty).
2 | network_0/router_level3_1 | Using precomputed lookahead routing information for VC 0 at input 7 (front: 1).
2 | network_0/router_level3_1/buf_7/vc_0 | Changing state from idle to vc_alloc.
2 | network_0/router_level3_1 | Beginning VC allocation for VC 0 at input 7 (front: 1).
2 | network_0/router_level3_1 |   Requesting VC 0 at output 13 (in_pri: 0, out_pri: 0).
2 | network_0/router_level3_1 |   Requesting VC 1 at output 13 (in_pri: 0, out_pri: 0).
2 | network_0/router_level3_1 |   Requesting VC 2 at output 13 (in_pri: 0, out_pri: 0).
2 | network_0/router_level3_1 |   Requesting VC 3 at output 13 (in_pri: 0, out_pri: 0).
2 | network_0/router_level3_1/vc_allocator | Input requests = [ 20 -> [ 52@0 53@0 54@0 55@0 ]  28 -> [ 52@0 53@0 54@0 55@0 ]  ], output requests = [ 52 -> [ 20@0 28@0 ]  53 -> [ 20@0 28@0 ]  54 -> [ 20@0 28@0 ]  55 -> [ 20@0 28@0 ]  ].
2 | network_0/router_level3_1/vc_allocator | Input grants = [ 20 -> 52  ], output grants = [ 52 -> 20  ].
2 | network_0/router_level3_1 | VC allocation failed for VC 0 at input 7.
2 | network_0/router_level3_1 | Completed VC allocation for VC 0 at input 7 (front: 1).
2 | network_0/router_level3_1 |   No output VC allocated.
2 | network_0/router_level3_4 | Adding flit 2 to VC 0 at input 2 (state: idle, empty).
2 | network_0/router_level3_4 | Using precomputed lookahead routing information for VC 0 at input 2 (front: 2).
2 | network_0/router_level3_4/buf_2/vc_0 | Changing state from idle to vc_alloc.
2 | network_0/router_level3_4 | Beginning VC allocation for VC 0 at input 2 (front: 2).
2 | network_0/router_level3_4 |   Requesting VC 0 at output 14 (in_pri: 0, out_pri: 0).
2 | network_0/router_level3_4 |   Requesting VC 1 at output 14 (in_pri: 0, out_pri: 0).
2 | network_0/router_level3_4 |   Requesting VC 2 at output 14 (in_pri: 0, out_pri: 0).
2 | network_0/router_level3_4 |   Requesting VC 3 at output 14 (in_pri: 0, out_pri: 0).
2 | network_0/router_level3_4/vc_allocator | Input requests = [ 8 -> [ 56@0 57@0 58@0 59@0 ]  ], output requests = [ 56 -> [ 8@0 ]  57 -> [ 8@0 ]  58 -> [ 8@0 ]  59 -> [ 8@0 ]  ].
2 | network_0/router_level3_4/vc_allocator | Input grants = [ 8 -> 56  ], output grants = [ 56 -> 8  ].
2 | network_0/router_level3_4 | Assigning VC 0 at output 14 to VC 0 at input 2.
2 | network_0/router_level3_4 | Completed VC allocation for VC 0 at input 2 (front: 2).
2 | network_0/router_level3_4 |   Acquiring assigned VC 0 at output 14.
2 | network_0/router_level3_4/buf_2/vc_0 | Changing state from vc_alloc to active.
2 | network_0/router_level3_5 | Adding flit 3 to VC 0 at input 7 (state: idle, empty).
2 | network_0/router_level3_5 | Using precomputed lookahead routing information for VC 0 at input 7 (front: 3).
2 | network_0/router_level3_5/buf_7/vc_0 | Changing state from idle to vc_alloc.
2 | network_0/router_level3_5 | Beginning VC allocation for VC 0 at input 7 (front: 3).
2 | network_0/router_level3_5 |   Requesting VC 0 at output 9 (in_pri: 0, out_pri: 0).
2 | network_0/router_level3_5 |   Requesting VC 1 at output 9 (in_pri: 0, out_pri: 0).
2 | network_0/router_level3_5 |   Requesting VC 2 at output 9 (in_pri: 0, out_pri: 0).
2 | network_0/router_level3_5 |   Requesting VC 3 at output 9 (in_pri: 0, out_pri: 0).
2 | network_0/router_level3_5/vc_allocator | Input requests = [ 28 -> [ 36@0 37@0 38@0 39@0 ]  ], output requests = [ 36 -> [ 28@0 ]  37 -> [ 28@0 ]  38 -> [ 28@0 ]  39 -> [ 28@0 ]  ].
2 | network_0/router_level3_5/vc_allocator | Input grants = [ 28 -> 36  ], output grants = [ 36 -> 28  ].
2 | network_0/router_level3_5 | Assigning VC 0 at output 9 to VC 0 at input 7.
2 | network_0/router_level3_5 | Completed VC allocation for VC 0 at input 7 (front: 3).
2 | network_0/router_level3_5 |   Acquiring assigned VC 0 at output 9.
2 | network_0/router_level3_5/buf_7/vc_0 | Changing state from vc_alloc to active.
2 | network_0/router_level3_6 | Adding flit 4 to VC 0 at input 5 (state: idle, empty).
2 | network_0/router_level3_6 | Using precomputed lookahead routing information for VC 0 at input 5 (front: 4).
2 | network_0/router_level3_6/buf_5/vc_0 | Changing state from idle to vc_alloc.
2 | network_0/router_level3_6 | Adding flit 5 to VC 0 at input 6 (state: idle, empty).
2 | network_0/router_level3_6 | Using precomputed lookahead routing information for VC 0 at input 6 (front: 5).
2 | network_0/router_level3_6/buf_6/vc_0 | Changing state from idle to vc_alloc.
2 | network_0/router_level3_6 | Beginning VC allocation for VC 0 at input 5 (front: 4).
2 | network_0/router_level3_6 |   Requesting VC 0 at output 14 (in_pri: 0, out_pri: 0).
2 | network_0/router_level3_6 |   Requesting VC 1 at output 14 (in_pri: 0, out_pri: 0).
2 | network_0/router_level3_6 |   Requesting VC 2 at output 14 (in_pri: 0, out_pri: 0).
2 | network_0/router_level3_6 |   Requesting VC 3 at output 14 (in_pri: 0, out_pri: 0).
2 | network_0/router_level3_6 | Beginning VC allocation for VC 0 at input 6 (front: 5).
2 | network_0/router_level3_6 |   Requesting VC 0 at output 8 (in_pri: 0, out_pri: 0).
2 | network_0/router_level3_6 |   Requesting VC 1 at output 8 (in_pri: 0, out_pri: 0).
2 | network_0/router_level3_6 |   Requesting VC 2 at output 8 (in_pri: 0, out_pri: 0).
2 | network_0/router_level3_6 |   Requesting VC 3 at output 8 (in_pri: 0, out_pri: 0).
2 | network_0/router_level3_6/vc_allocator | Input requests = [ 20 -> [ 56@0 57@0 58@0 59@0 ]  24 -> [ 32@0 33@0 34@0 35@0 ]  ], output requests = [ 32 -> [ 24@0 ]  33 -> [ 24@0 ]  34 -> [ 24@0 ]  35 -> [ 24@0 ]  56 -> [ 20@0 ]  57 -> [ 20@0 ]  58 -> [ 20@0 ]  59 -> [ 20@0 ]  ].
2 | network_0/router_level3_6/vc_allocator | Input grants = [ 20 -> 56  24 -> 32  ], output grants = [ 32 -> 24  56 -> 20  ].
2 | network_0/router_level3_6 | Assigning VC 0 at output 14 to VC 0 at input 5.
2 | network_0/router_level3_6 | Assigning VC 0 at output 8 to VC 0 at input 6.
2 | network_0/router_level3_6 | Completed VC allocation for VC 0 at input 5 (front: 4).
2 | network_0/router_level3_6 |   Acquiring assigned VC 0 at output 14.
2 | network_0/router_level3_6/buf_5/vc_0 | Changing state from vc_alloc to active.
2 | network_0/router_level3_6 | Completed VC allocation for VC 0 at input 6 (front: 5).
2 | network_0/router_level3_6 |   Acquiring assigned VC 0 at output 8.
2 | network_0/router_level3_6/buf_6/vc_0 | Changing state from vc_alloc to active.
2 | network_0/router_level3_7 | Adding flit 6 to VC 0 at input 6 (state: idle, empty).
2 | network_0/router_level3_7 | Using precomputed lookahead routing information for VC 0 at input 6 (front: 6).
2 | network_0/router_level3_7/buf_6/vc_0 | Changing state from idle to vc_alloc.
2 | network_0/router_level3_7 | Beginning VC allocation for VC 0 at input 6 (front: 6).
2 | network_0/router_level3_7 |   Requesting VC 0 at output 8 (in_pri: 0, out_pri: 0).
2 | network_0/router_level3_7 |   Requesting VC 1 at output 8 (in_pri: 0, out_pri: 0).
2 | network_0/router_level3_7 |   Requesting VC 2 at output 8 (in_pri: 0, out_pri: 0).
2 | network_0/router_level3_7 |   Requesting VC 3 at output 8 (in_pri: 0, out_pri: 0).
2 | network_0/router_level3_7/vc_allocator | Input requests = [ 24 -> [ 32@0 33@0 34@0 35@0 ]  ], output requests = [ 32 -> [ 24@0 ]  33 -> [ 24@0 ]  34 -> [ 24@0 ]  35 -> [ 24@0 ]  ].
2 | network_0/router_level3_7/vc_allocator | Input grants = [ 24 -> 32  ], output grants = [ 32 -> 24  ].
2 | network_0/router_level3_7 | Assigning VC 0 at output 8 to VC 0 at input 6.
2 | network_0/router_level3_7 | Completed VC allocation for VC 0 at input 6 (front: 6).
2 | network_0/router_level3_7 |   Acquiring assigned VC 0 at output 8.
2 | network_0/router_level3_7/buf_6/vc_0 | Changing state from vc_alloc to active.
2 | network_0/router_level3_8 | Adding flit 7 to VC 0 at input 2 (state: idle, empty).
2 | network_0/router_level3_8 | Using precomputed lookahead routing information for VC 0 at input 2 (front: 7).
2 | network_0/router_level3_8/buf_2/vc_0 | Changing state from idle to vc_alloc.
2 | network_0/router_level3_8 | Adding flit 8 to VC 0 at input 7 (state: idle, empty).
2 | network_0/router_level3_8 | Using precomputed lookahead routing information for VC 0 at input 7 (front: 8).
2 | network_0/router_level3_8/buf_7/vc_0 | Changing state from idle to vc_alloc.
2 | network_0/router_level3_8 | Beginning VC allocation for VC 0 at input 2 (front: 7).
2 | network_0/router_level3_8 |   Requesting VC 0 at output 11 (in_pri: 0, out_pri: 0).
2 | network_0/router_level3_8 |   Requesting VC 1 at output 11 (in_pri: 0, out_pri: 0).
2 | network_0/router_level3_8 |   Requesting VC 2 at output 11 (in_pri: 0, out_pri: 0).
2 | network_0/router_level3_8 |   Requesting VC 3 at output 11 (in_pri: 0, out_pri: 0).
2 | network_0/router_level3_8 | Beginning VC allocation for VC 0 at input 7 (front: 8).
2 | network_0/router_level3_8 |   Requesting VC 0 at output 14 (in_pri: 0, out_pri: 0).
2 | network_0/router_level3_8 |   Requesting VC 1 at output 14 (in_pri: 0, out_pri: 0).
2 | network_0/router_level3_8 |   Requesting VC 2 at output 14 (in_pri: 0, out_pri: 0).
2 | network_0/router_level3_8 |   Requesting VC 3 at output 14 (in_pri: 0, out_pri: 0).
2 | network_0/router_level3_8/vc_allocator | Input requests = [ 8 -> [ 44@0 45@0 46@0 47@0 ]  28 -> [ 56@0 57@0 58@0 59@0 ]  ], output requests = [ 44 -> [ 8@0 ]  45 -> [ 8@0 ]  46 -> [ 8@0 ]  47 -> [ 8@0 ]  56 -> [ 28@0 ]  57 -> [ 28@0 ]  58 -> [ 28@0 ]  59 -> [ 28@0 ]  ].
2 | network_0/router_level3_8/vc_allocator | Input grants = [ 8 -> 44  28 -> 56  ], output grants = [ 44 -> 8  56 -> 28  ].
2 | network_0/router_level3_8 | Assigning VC 0 at output 11 to VC 0 at input 2.
2 | network_0/router_level3_8 | Assigning VC 0 at output 14 to VC 0 at input 7.
2 | network_0/router_level3_8 | Completed VC allocation for VC 0 at input 2 (front: 7).
2 | network_0/router_level3_8 |   Acquiring assigned VC 0 at output 11.
2 | network_0/router_level3_8/buf_2/vc_0 | Changing state from vc_alloc to active.
2 | network_0/router_level3_8 | Completed VC allocation for VC 0 at input 7 (front: 8).
2 | network_0/router_level3_8 |   Acquiring assigned VC 0 at output 14.
2 | network_0/router_level3_8/buf_7/vc_0 | Changing state from vc_alloc to active.
2 | network_0/router_level3_9 | Adding flit 9 to VC 0 at input 5 (state: idle, empty).
2 | network_0/router_level3_9 | Using precomputed lookahead routing information for VC 0 at input 5 (front: 9).
2 | network_0/router_level3_9/buf_5/vc_0 | Changing state from idle to vc_alloc.
2 | network_0/router_level3_9 | Adding flit 10 to VC 0 at input 6 (state: idle, empty).
2 | network_0/router_level3_9 | Using precomputed lookahead routing information for VC 0 at input 6 (front: 10).
2 | network_0/router_level3_9/buf_6/vc_0 | Changing state from idle to vc_alloc.
2 | network_0/router_level3_9 | Beginning VC allocation for VC 0 at input 5 (front: 9).
2 | network_0/router_level3_9 |   Requesting VC 0 at output 11 (in_pri: 0, out_pri: 0).
2 | network_0/router_level3_9 |   Requesting VC 1 at output 11 (in_pri: 0, out_pri: 0).
2 | network_0/router_level3_9 |   Requesting VC 2 at output 11 (in_pri: 0, out_pri: 0).
2 | network_0/router_level3_9 |   Requesting VC 3 at output 11 (in_pri: 0, out_pri: 0).
2 | network_0/router_level3_9 | Beginning VC allocation for VC 0 at input 6 (front: 10).
2 | network_0/router_level3_9 |   Requesting VC 0 at output 9 (in_pri: 0, out_pri: 0).
2 | network_0/router_level3_9 |   Requesting VC 1 at output 9 (in_pri: 0, out_pri: 0).
2 | network_0/router_level3_9 |   Requesting VC 2 at output 9 (in_pri: 0, out_pri: 0).
2 | network_0/router_level3_9 |   Requesting VC 3 at output 9 (in_pri: 0, out_pri: 0).
2 | network_0/router_level3_9/vc_allocator | Input requests = [ 20 -> [ 44@0 45@0 46@0 47@0 ]  24 -> [ 36@0 37@0 38@0 39@0 ]  28 -> [ 32@0 33@0 34@0 35@0 ]  ], output requests = [ 32 -> [ 28@0 ]  33 -> [ 28@0 ]  34 -> [ 28@0 ]  35 -> [ 28@0 ]  36 -> [ 24@0 ]  37 -> [ 24@0 ]  38 -> [ 24@0 ]  39 -> [ 24@0 ]  44 -> [ 20@0 ]  45 -> [ 20@0 ]  46 -> [ 20@0 ]  47 -> [ 20@0 ]  ].
2 | network_0/router_level3_9/vc_allocator | Input grants = [ 20 -> 44  24 -> 36  28 -> 32  ], output grants = [ 32 -> 28  36 -> 24  44 -> 20  ].
2 | network_0/router_level3_9 | Assigning VC 0 at output 11 to VC 0 at input 5.
2 | network_0/router_level3_9 | Assigning VC 0 at output 9 to VC 0 at input 6.
2 | network_0/router_level3_9 | Completed VC allocation for VC 0 at input 5 (front: 9).
2 | network_0/router_level3_9 |   Acquiring assigned VC 0 at output 11.
2 | network_0/router_level3_9/buf_5/vc_0 | Changing state from vc_alloc to active.
2 | network_0/router_level3_9 | Completed VC allocation for VC 0 at input 6 (front: 10).
2 | network_0/router_level3_9 |   Acquiring assigned VC 0 at output 9.
2 | network_0/router_level3_9/buf_6/vc_0 | Changing state from vc_alloc to active.
3 | network_0/router_level3_1 | Beginning VC allocation for VC 0 at input 7 (front: 1).
3 | network_0/router_level3_1 |   VC 0 at output 13 is in use by VC 0 at input 5 (front flit: 0).
3 | network_0/router_level3_1 |   Requesting VC 1 at output 13 (in_pri: 0, out_pri: 0).
3 | network_0/router_level3_1 |   Requesting VC 2 at output 13 (in_pri: 0, out_pri: 0).
3 | network_0/router_level3_1 |   Requesting VC 3 at output 13 (in_pri: 0, out_pri: 0).
3 | network_0/router_level3_1/vc_allocator | Input requests = [ 4 -> [ 36@0 37@0 38@0 39@0 ]  21 -> [ 56@0 57@0 58@0 59@0 ]  24 -> [ 48@0 49@0 50@0 51@0 ]  28 -> [ 53@0 54@0 55@0 ]  ], output requests = [ 36 -> [ 4@0 ]  37 -> [ 4@0 ]  38 -> [ 4@0 ]  39 -> [ 4@0 ]  48 -> [ 24@0 ]  49 -> [ 24@0 ]  50 -> [ 24@0 ]  51 -> [ 24@0 ]  53 -> [ 28@0 ]  54 -> [ 28@0 ]  55 -> [ 28@0 ]  56 -> [ 21@0 ]  57 -> [ 21@0 ]  58 -> [ 21@0 ]  59 -> [ 21@0 ]  ].
3 | network_0/router_level3_1/vc_allocator | Input grants = [ 4 -> 36  21 -> 56  24 -> 48  28 -> 53  ], output grants = [ 36 -> 4  48 -> 24  53 -> 28  56 -> 21  ].
3 | network_0/router_level3_1 | Assigning VC 1 at output 13 to VC 0 at input 7.
3 | network_0/router_level3_1 | Completed VC allocation for VC 0 at input 7 (front: 1).
3 | network_0/router_level3_1 |   Acquiring assigned VC 1 at output 13.
3 | network_0/router_level3_1/buf_7/vc_0 | Changing state from vc_alloc to active.
3 | network_0/router_level3_4 | Beginning switch allocation for VC 0 at input 2 (front: 2).
3 | network_0/router_level3_4 |   Requesting output 14.0 (non-spec, pri: 0).
3 | network_0/router_level3_4/sw_allocator | Input requests = [ 2 -> [ 14@0 ]  ], output requests = [ 14 -> [ 2@0 ]  ].
3 | network_0/router_level3_4/sw_allocator | Input grants = [ 2 -> 14  ], output grants = [ 14 -> 2  ].
3 | network_0/router_level3_4 | Assigning output 14.0 to VC 0 at input 2.0.
3 | network_0/router_level3_4 | Completed switch allocation for VC 0 at input 2 (front: 2).
3 | network_0/router_level3_4 |   Scheduling switch connection from input 2.0 to output 14.0.
3 | network_0/router_level3_4 | Updating lookahead routing information for flit 2.
3 | network_0/router_level3_5 | Beginning switch allocation for VC 0 at input 7 (front: 3).
3 | network_0/router_level3_5 |   Requesting output 9.0 (non-spec, pri: 0).
3 | network_0/router_level3_5/sw_allocator | Input requests = [ 7 -> [ 9@0 ]  ], output requests = [ 9 -> [ 7@0 ]  ].
3 | network_0/router_level3_5/sw_allocator | Input grants = [ 7 -> 9  ], output grants = [ 9 -> 7  ].
3 | network_0/router_level3_5 | Assigning output 9.0 to VC 0 at input 7.0.
3 | network_0/router_level3_5 | Completed switch allocation for VC 0 at input 7 (front: 3).
3 | network_0/router_level3_5 |   Scheduling switch connection from input 7.0 to output 9.0.
3 | network_0/router_level3_5 | Updating lookahead routing information for flit 3.
3 | network_0/router_level3_6 | Beginning switch allocation for VC 0 at input 5 (front: 4).
3 | network_0/router_level3_6 |   Requesting output 14.0 (non-spec, pri: 0).
3 | network_0/router_level3_6 | Beginning switch allocation for VC 0 at input 6 (front: 5).
3 | network_0/router_level3_6 |   Requesting output 8.0 (non-spec, pri: 0).
3 | network_0/router_level3_6/sw_allocator | Input requests = [ 5 -> [ 14@0 ]  6 -> [ 8@0 ]  ], output requests = [ 8 -> [ 6@0 ]  14 -> [ 5@0 ]  ].
3 | network_0/router_level3_6/sw_allocator | Input grants = [ 5 -> 14  6 -> 8  ], output grants = [ 8 -> 6  14 -> 5  ].
3 | network_0/router_level3_6 | Assigning output 14.0 to VC 0 at input 5.0.
3 | network_0/router_level3_6 | Assigning output 8.0 to VC 0 at input 6.0.
3 | network_0/router_level3_6 | Completed switch allocation for VC 0 at input 5 (front: 4).
3 | network_0/router_level3_6 |   Scheduling switch connection from input 5.0 to output 14.0.
3 | network_0/router_level3_6 | Updating lookahead routing information for flit 4.
3 | network_0/router_level3_6 | Completed switch allocation for VC 0 at input 6 (front: 5).
3 | network_0/router_level3_6 |   Scheduling switch connection from input 6.0 to output 8.0.
3 | network_0/router_level3_6 | Updating lookahead routing information for flit 5.
3 | network_0/router_level3_7 | Beginning switch allocation for VC 0 at input 6 (front: 6).
3 | network_0/router_level3_7 |   Requesting output 8.0 (non-spec, pri: 0).
3 | network_0/router_level3_7/sw_allocator | Input requests = [ 6 -> [ 8@0 ]  ], output requests = [ 8 -> [ 6@0 ]  ].
3 | network_0/router_level3_7/sw_allocator | Input grants = [ 6 -> 8  ], output grants = [ 8 -> 6  ].
3 | network_0/router_level3_7 | Assigning output 8.0 to VC 0 at input 6.0.
3 | network_0/router_level3_7 | Completed switch allocation for VC 0 at input 6 (front: 6).
3 | network_0/router_level3_7 |   Scheduling switch connection from input 6.0 to output 8.0.
3 | network_0/router_level3_7 | Updating lookahead routing information for flit 6.
3 | network_0/router_level3_8 | Beginning switch allocation for VC 0 at input 2 (front: 7).
3 | network_0/router_level3_8 |   Requesting output 11.0 (non-spec, pri: 0).
3 | network_0/router_level3_8 | Beginning switch allocation for VC 0 at input 7 (front: 8).
3 | network_0/router_level3_8 |   Requesting output 14.0 (non-spec, pri: 0).
3 | network_0/router_level3_8/sw_allocator | Input requests = [ 2 -> [ 11@0 ]  7 -> [ 14@0 ]  ], output requests = [ 11 -> [ 2@0 ]  14 -> [ 7@0 ]  ].
3 | network_0/router_level3_8/sw_allocator | Input grants = [ 2 -> 11  7 -> 14  ], output grants = [ 11 -> 2  14 -> 7  ].
3 | network_0/router_level3_8 | Assigning output 11.0 to VC 0 at input 2.0.
3 | network_0/router_level3_8 | Assigning output 14.0 to VC 0 at input 7.0.
3 | network_0/router_level3_8 | Completed switch allocation for VC 0 at input 2 (front: 7).
3 | network_0/router_level3_8 |   Scheduling switch connection from input 2.0 to output 11.0.
3 | network_0/router_level3_8 | Updating lookahead routing information for flit 7.
3 | network_0/router_level3_8 | Completed switch allocation for VC 0 at input 7 (front: 8).
3 | network_0/router_level3_8 |   Scheduling switch connection from input 7.0 to output 14.0.
3 | network_0/router_level3_8 | Updating lookahead routing information for flit 8.
3 | network_0/router_level3_9 | Beginning switch allocation for VC 0 at input 5 (front: 9).
3 | network_0/router_level3_9 |   Requesting output 11.0 (non-spec, pri: 0).
3 | network_0/router_level3_9 | Beginning switch allocation for VC 0 at input 6 (front: 10).
3 | network_0/router_level3_9 |   Requesting output 9.0 (non-spec, pri: 0).
3 | network_0/router_level3_9/sw_allocator | Input requests = [ 5 -> [ 11@0 ]  6 -> [ 9@0 ]  7 -> [ 8@0 ]  ], output requests = [ 8 -> [ 7@0 ]  9 -> [ 6@0 ]  11 -> [ 5@0 ]  ].
3 | network_0/router_level3_9/sw_allocator | Input grants = [ 5 -> 11  6 -> 9  7 -> 8  ], output grants = [ 8 -> 7  9 -> 6  11 -> 5  ].
3 | network_0/router_level3_9 | Assigning output 11.0 to VC 0 at input 5.0.
3 | network_0/router_level3_9 | Assigning output 9.0 to VC 0 at input 6.0.
3 | network_0/router_level3_9 | Completed switch allocation for VC 0 at input 5 (front: 9).
3 | network_0/router_level3_9 |   Scheduling switch connection from input 5.0 to output 11.0.
3 | network_0/router_level3_9 | Updating lookahead routing information for flit 9.
3 | network_0/router_level3_9 | Completed switch allocation for VC 0 at input 6 (front: 10).
3 | network_0/router_level3_9 |   Scheduling switch connection from input 6.0 to output 9.0.
3 | network_0/router_level3_9 | Updating lookahead routing information for flit 10.
4 | network_0/router_level3_1 | Beginning switch allocation for VC 0 at input 7 (front: 1).
4 | network_0/router_level3_1 |   Requesting output 13.0 (non-spec, pri: 0).
4 | network_0/router_level3_1/sw_allocator | Input requests = [ 1 -> [ 9@0 ]  5 -> [ 14@0 ]  6 -> [ 12@0 ]  7 -> [ 13@0 ]  ], output requests = [ 9 -> [ 1@0 ]  12 -> [ 6@0 ]  13 -> [ 7@0 ]  14 -> [ 5@0 ]  ].
4 | network_0/router_level3_1/sw_allocator | Input grants = [ 1 -> 9  5 -> 14  6 -> 12  7 -> 13  ], output grants = [ 9 -> 1  12 -> 6  13 -> 7  14 -> 5  ].
4 | network_0/router_level3_1 | Assigning output 13.0 to VC 0 at input 7.0.
4 | network_0/router_level3_1 | Completed switch allocation for VC 0 at input 7 (front: 1).
4 | network_0/router_level3_1 |   Scheduling switch connection from input 7.0 to output 13.0.
4 | network_0/router_level3_1 | Updating lookahead routing information for flit 1.
4 | network_0/router_level3_4 | Beginning crossbar traversal for flit 2 from input 2.0 to output 14.0.
4 | network_0/router_level3_4 | Completed crossbar traversal for flit 2 from input 2.0 to output 14.0.
4 | network_0/router_level3_4 | Buffering flit 2 at output 14.
4 | network_0/router_level3_5 | Beginning crossbar traversal for flit 3 from input 7.0 to output 9.0.
4 | network_0/router_level3_5 | Completed crossbar traversal for flit 3 from input 7.0 to output 9.0.
4 | network_0/router_level3_5 | Buffering flit 3 at output 9.
4 | network_0/router_level3_6 | Beginning crossbar traversal for flit 4 from input 5.0 to output 14.0.
4 | network_0/router_level3_6 | Beginning crossbar traversal for flit 5 from input 6.0 to output 8.0.
4 | network_0/router_level3_6 | Completed crossbar traversal for flit 4 from input 5.0 to output 14.0.
4 | network_0/router_level3_6 | Buffering flit 4 at output 14.
4 | network_0/router_level3_6 | Completed crossbar traversal for flit 5 from input 6.0 to output 8.0.
4 | network_0/router_level3_6 | Buffering flit 5 at output 8.
4 | network_0/router_level3_7 | Beginning crossbar traversal for flit 6 from input 6.0 to output 8.0.
4 | network_0/router_level3_7 | Completed crossbar traversal for flit 6 from input 6.0 to output 8.0.
4 | network_0/router_level3_7 | Buffering flit 6 at output 8.
4 | network_0/router_level3_8 | Beginning crossbar traversal for flit 7 from input 2.0 to output 11.0.
4 | network_0/router_level3_8 | Beginning crossbar traversal for flit 8 from input 7.0 to output 14.0.
4 | network_0/router_level3_8 | Completed crossbar traversal for flit 7 from input 2.0 to output 11.0.
4 | network_0/router_level3_8 | Buffering flit 7 at output 11.
4 | network_0/router_level3_8 | Completed crossbar traversal for flit 8 from input 7.0 to output 14.0.
4 | network_0/router_level3_8 | Buffering flit 8 at output 14.
4 | network_0/router_level3_9 | Beginning crossbar traversal for flit 9 from input 5.0 to output 11.0.
4 | network_0/router_level3_9 | Beginning crossbar traversal for flit 10 from input 6.0 to output 9.0.
4 | network_0/router_level3_9 | Completed crossbar traversal for flit 9 from input 5.0 to output 11.0.
4 | network_0/router_level3_9 | Buffering flit 9 at output 11.
4 | network_0/router_level3_9 | Completed crossbar traversal for flit 10 from input 6.0 to output 9.0.
4 | network_0/router_level3_9 | Buffering flit 10 at output 9.
4 | network_0/router_level3_4 | Sending flit 2 to channel at output 14.
4 | network_0/router_level3_5 | Sending flit 3 to channel at output 9.
4 | network_0/router_level3_6 | Sending flit 5 to channel at output 8.
4 | network_0/router_level3_6 | Sending flit 4 to channel at output 14.
4 | network_0/router_level3_7 | Sending flit 6 to channel at output 8.
4 | network_0/router_level3_8 | Sending flit 7 to channel at output 11.
4 | network_0/router_level3_8 | Sending flit 8 to channel at output 14.
4 | network_0/router_level3_9 | Sending flit 10 to channel at output 9.
4 | network_0/router_level3_9 | Sending flit 9 to channel at output 11.
5 | network_0/network_0_fchan_20518 | Beginning channel traversal for flit 2 with delay 1.
5 | network_0/network_0_fchan_20521 | Beginning channel traversal for flit 3 with delay 1.
5 | network_0/network_0_fchan_20528 | Beginning channel traversal for flit 5 with delay 1.
5 | network_0/network_0_fchan_20534 | Beginning channel traversal for flit 4 with delay 1.
5 | network_0/network_0_fchan_20536 | Beginning channel traversal for flit 6 with delay 1.
5 | network_0/network_0_fchan_20547 | Beginning channel traversal for flit 7 with delay 1.
5 | network_0/network_0_fchan_20550 | Beginning channel traversal for flit 8 with delay 1.
5 | network_0/network_0_fchan_20553 | Beginning channel traversal for flit 10 with delay 1.
5 | network_0/network_0_fchan_20555 | Beginning channel traversal for flit 9 with delay 1.
5 | network_0/router_level3_1 | Beginning crossbar traversal for flit 1 from input 7.0 to output 13.0.
5 | network_0/router_level3_1 | Completed crossbar traversal for flit 1 from input 7.0 to output 13.0.
5 | network_0/router_level3_1 | Buffering flit 1 at output 13.
5 | network_0/network_0_fchan_20518 | Completed channel traversal for flit 2.
5 | network_0/network_0_fchan_20521 | Completed channel traversal for flit 3.
5 | network_0/network_0_fchan_20528 | Completed channel traversal for flit 5.
5 | network_0/network_0_fchan_20534 | Completed channel traversal for flit 4.
5 | network_0/network_0_fchan_20536 | Completed channel traversal for flit 6.
5 | network_0/network_0_fchan_20547 | Completed channel traversal for flit 7.
5 | network_0/network_0_fchan_20550 | Completed channel traversal for flit 8.
5 | network_0/network_0_fchan_20553 | Completed channel traversal for flit 10.
5 | network_0/network_0_fchan_20555 | Completed channel traversal for flit 9.
5 | network_0/router_level3_1 | Sending flit 1 to channel at output 13.
6 | network_0/network_0_fchan_20493 | Beginning channel traversal for flit 1 with delay 1.
6 | network_0/router_level2_0 | Received flit 5 from channel at input 6.
6 | network_0/router_level2_0 | Received flit 6 from channel at input 7.
6 | network_0/router_level2_1 | Received flit 3 from channel at input 5.
6 | network_0/router_level2_6 | Received flit 2 from channel at input 4.
6 | network_0/router_level2_6 | Received flit 4 from channel at input 6.
6 | network_0/router_level2_9 | Received flit 10 from channel at input 1.
6 | network_0/router_level2_11 | Received flit 7 from channel at input 0.
6 | network_0/router_level2_11 | Received flit 9 from channel at input 1.
6 | network_0/router_level2_14 | Received flit 8 from channel at input 0.
6 | network_0/router_level2_0 | Adding flit 5 to VC 0 at input 6 (state: idle, empty).
6 | network_0/router_level2_0 | Using precomputed lookahead routing information for VC 0 at input 6 (front: 5).
6 | network_0/router_level2_0/buf_6/vc_0 | Changing state from idle to vc_alloc.
6 | network_0/router_level2_0 | Adding flit 6 to VC 0 at input 7 (state: idle, empty).
6 | network_0/router_level2_0 | Using precomputed lookahead routing information for VC 0 at input 7 (front: 6).
6 | network_0/router_level2_0/buf_7/vc_0 | Changing state from idle to vc_alloc.
6 | network_0/router_level2_0 | Beginning VC allocation for VC 0 at input 6 (front: 5).
6 | network_0/router_level2_0 |   Requesting VC 0 at output 10 (in_pri: 0, out_pri: 0).
6 | network_0/router_level2_0 |   Requesting VC 1 at output 10 (in_pri: 0, out_pri: 0).
6 | network_0/router_level2_0 |   Requesting VC 2 at output 10 (in_pri: 0, out_pri: 0).
6 | network_0/router_level2_0 |   Requesting VC 3 at output 10 (in_pri: 0, out_pri: 0).
6 | network_0/router_level2_0 | Beginning VC allocation for VC 0 at input 7 (front: 6).
6 | network_0/router_level2_0 |   Requesting VC 0 at output 15 (in_pri: 0, out_pri: 0).
6 | network_0/router_level2_0 |   Requesting VC 1 at output 15 (in_pri: 0, out_pri: 0).
6 | network_0/router_level2_0 |   Requesting VC 2 at output 15 (in_pri: 0, out_pri: 0).
6 | network_0/router_level2_0 |   Requesting VC 3 at output 15 (in_pri: 0, out_pri: 0).
6 | network_0/router_level2_0/vc_allocator | Input requests = [ 24 -> [ 40@0 41@0 42@0 43@0 ]  28 -> [ 60@0 61@0 62@0 63@0 ]  ], output requests = [ 40 -> [ 24@0 ]  41 -> [ 24@0 ]  42 -> [ 24@0 ]  43 -> [ 24@0 ]  60 -> [ 28@0 ]  61 -> [ 28@0 ]  62 -> [ 28@0 ]  63 -> [ 28@0 ]  ].
6 | network_0/router_level2_0/vc_allocator | Input grants = [ 24 -> 40  28 -> 60  ], output grants = [ 40 -> 24  60 -> 28  ].
6 | network_0/router_level2_0 | Assigning VC 0 at output 10 to VC 0 at input 6.
6 | network_0/router_level2_0 | Assigning VC 0 at output 15 to VC 0 at input 7.
6 | network_0/router_level2_0 | Completed VC allocation for VC 0 at input 6 (front: 5).
6 | network_0/router_level2_0 |   Acquiring assigned VC 0 at output 10.
6 | network_0/router_level2_0/buf_6/vc_0 | Changing state from vc_alloc to active.
6 | network_0/router_level2_0 | Completed VC allocation for VC 0 at input 7 (front: 6).
6 | network_0/router_level2_0 |   Acquiring assigned VC 0 at output 15.
6 | network_0/router_level2_0/buf_7/vc_0 | Changing state from vc_alloc to active.
6 | network_0/router_level2_1 | Adding flit 3 to VC 0 at input 5 (state: idle, empty).
6 | network_0/router_level2_1 | Using precomputed lookahead routing information for VC 0 at input 5 (front: 3).
6 | network_0/router_level2_1/buf_5/vc_0 | Changing state from idle to vc_alloc.
6 | network_0/router_level2_1 | Beginning VC allocation for VC 0 at input 5 (front: 3).
6 | network_0/router_level2_1 |   Requesting VC 0 at output 15 (in_pri: 0, out_pri: 0).
6 | network_0/router_level2_1 |   Requesting VC 1 at output 15 (in_pri: 0, out_pri: 0).
6 | network_0/router_level2_1 |   Requesting VC 2 at output 15 (in_pri: 0, out_pri: 0).
6 | network_0/router_level2_1 |   Requesting VC 3 at output 15 (in_pri: 0, out_pri: 0).
6 | network_0/router_level2_1/vc_allocator | Input requests = [ 20 -> [ 60@0 61@0 62@0 63@0 ]  ], output requests = [ 60 -> [ 20@0 ]  61 -> [ 20@0 ]  62 -> [ 20@0 ]  63 -> [ 20@0 ]  ].
6 | network_0/router_level2_1/vc_allocator | Input grants = [ 20 -> 60  ], output grants = [ 60 -> 20  ].
6 | network_0/router_level2_1 | Assigning VC 0 at output 15 to VC 0 at input 5.
6 | network_0/router_level2_1 | Completed VC allocation for VC 0 at input 5 (front: 3).
6 | network_0/router_level2_1 |   Acquiring assigned VC 0 at output 15.
6 | network_0/router_level2_1/buf_5/vc_0 | Changing state from vc_alloc to active.
6 | network_0/router_level2_6 | Adding flit 2 to VC 0 at input 4 (state: idle, empty).
6 | network_0/router_level2_6 | Using precomputed lookahead routing information for VC 0 at input 4 (front: 2).
6 | network_0/router_level2_6/buf_4/vc_0 | Changing state from idle to vc_alloc.
6 | network_0/router_level2_6 | Adding flit 4 to VC 0 at input 6 (state: idle, empty).
6 | network_0/router_level2_6 | Using precomputed lookahead routing information for VC 0 at input 6 (front: 4).
6 | network_0/router_level2_6/buf_6/vc_0 | Changing state from idle to vc_alloc.
6 | network_0/router_level2_6 | Beginning VC allocation for VC 0 at input 4 (front: 2).
6 | network_0/router_level2_6 |   Requesting VC 0 at output 14 (in_pri: 0, out_pri: 0).
6 | network_0/router_level2_6 |   Requesting VC 1 at output 14 (in_pri: 0, out_pri: 0).
6 | network_0/router_level2_6 |   Requesting VC 2 at output 14 (in_pri: 0, out_pri: 0).
6 | network_0/router_level2_6 |   Requesting VC 3 at output 14 (in_pri: 0, out_pri: 0).
6 | network_0/router_level2_6 | Beginning VC allocation for VC 0 at input 6 (front: 4).
6 | network_0/router_level2_6 |   Requesting VC 0 at output 14 (in_pri: 0, out_pri: 0).
6 | network_0/router_level2_6 |   Requesting VC 1 at output 14 (in_pri: 0, out_pri: 0).
6 | network_0/router_level2_6 |   Requesting VC 2 at output 14 (in_pri: 0, out_pri: 0).
6 | network_0/router_level2_6 |   Requesting VC 3 at output 14 (in_pri: 0, out_pri: 0).
6 | network_0/router_level2_6/vc_allocator | Input requests = [ 16 -> [ 56@0 57@0 58@0 59@0 ]  24 -> [ 56@0 57@0 58@0 59@0 ]  ], output requests = [ 56 -> [ 16@0 24@0 ]  57 -> [ 16@0 24@0 ]  58 -> [ 16@0 24@0 ]  59 -> [ 16@0 24@0 ]  ].
6 | network_0/router_level2_6/vc_allocator | Input grants = [ 16 -> 56  ], output grants = [ 56 -> 16  ].
6 | network_0/router_level2_6 | Assigning VC 0 at output 14 to VC 0 at input 4.
6 | network_0/router_level2_6 | VC allocation failed for VC 0 at input 6.
6 | network_0/router_level2_6 | Completed VC allocation for VC 0 at input 4 (front: 2).
6 | network_0/router_level2_6 |   Acquiring assigned VC 0 at output 14.
6 | network_0/router_level2_6/buf_4/vc_0 | Changing state from vc_alloc to active.
6 | network_0/router_level2_6 | Completed VC allocation for VC 0 at input 6 (front: 4).
6 | network_0/router_level2_6 |   No output VC allocated.
6 | network_0/router_level2_9 | Adding flit 10 to VC 0 at input 1 (state: idle, empty).
6 | network_0/router_level2_9 | Using precomputed lookahead routing information for VC 0 at input 1 (front: 10).
6 | network_0/router_level2_9/buf_1/vc_0 | Changing state from idle to vc_alloc.
6 | network_0/router_level2_9 | Beginning VC allocation for VC 0 at input 1 (front: 10).
6 | network_0/router_level2_9 |   Requesting VC 0 at output 13 (in_pri: 0, out_pri: 0).
6 | network_0/router_level2_9 |   Requesting VC 1 at output 13 (in_pri: 0, out_pri: 0).
6 | network_0/router_level2_9 |   Requesting VC 2 at output 13 (in_pri: 0, out_pri: 0).
6 | network_0/router_level2_9 |   Requesting VC 3 at output 13 (in_pri: 0, out_pri: 0).
6 | network_0/router_level2_9/vc_allocator | Input requests = [ 4 -> [ 52@0 53@0 54@0 55@0 ]  8 -> [ 44@0 45@0 46@0 47@0 ]  12 -> [ 56@0 57@0 58@0 59@0 ]  16 -> [ 44@0 45@0 46@0 47@0 ]  ], output requests = [ 44 -> [ 8@0 16@0 ]  45 -> [ 8@0 16@0 ]  46 -> [ 8@0 16@0 ]  47 -> [ 8@0 16@0 ]  52 -> [ 4@0 ]  53 -> [ 4@0 ]  54 -> [ 4@0 ]  55 -> [ 4@0 ]  56 -> [ 12@0 ]  57 -> [ 12@0 ]  58 -> [ 12@0 ]  59 -> [ 12@0 ]  ].
6 | network_0/router_level2_9/vc_allocator | Input grants = [ 4 -> 52  8 -> 44  12 -> 56  ], output grants = [ 44 -> 8  52 -> 4  56 -> 12  ].
6 | network_0/router_level2_9 | Assigning VC 0 at output 13 to VC 0 at input 1.
6 | network_0/router_level2_9 | Completed VC allocation for VC 0 at input 1 (front: 10).
6 | network_0/router_level2_9 |   Acquiring assigned VC 0 at output 13.
6 | network_0/router_level2_9/buf_1/vc_0 | Changing state from vc_alloc to active.
6 | network_0/router_level2_11 | Adding flit 7 to VC 0 at input 0 (state: idle, empty).
6 | network_0/router_level2_11 | Using precomputed lookahead routing information for VC 0 at input 0 (front: 7).
6 | network_0/router_level2_11/buf_0/vc_0 | Changing state from idle to vc_alloc.
6 | network_0/router_level2_11 | Adding flit 9 to VC 0 at input 1 (state: idle, empty).
6 | network_0/router_level2_11 | Using precomputed lookahead routing information for VC 0 at input 1 (front: 9).
6 | network_0/router_level2_11/buf_1/vc_0 | Changing state from idle to vc_alloc.
6 | network_0/router_level2_11 | Beginning VC allocation for VC 0 at input 0 (front: 7).
6 | network_0/router_level2_11 |   Requesting VC 0 at output 10 (in_pri: 0, out_pri: 0).
6 | network_0/router_level2_11 |   Requesting VC 1 at output 10 (in_pri: 0, out_pri: 0).
6 | network_0/router_level2_11 |   Requesting VC 2 at output 10 (in_pri: 0, out_pri: 0).
6 | network_0/router_level2_11 |   Requesting VC 3 at output 10 (in_pri: 0, out_pri: 0).
6 | network_0/router_level2_11 | Beginning VC allocation for VC 0 at input 1 (front: 9).
6 | network_0/router_level2_11 |   Requesting VC 0 at output 12 (in_pri: 0, out_pri: 0).
6 | network_0/router_level2_11 |   Requesting VC 1 at output 12 (in_pri: 0, out_pri: 0).
6 | network_0/router_level2_11 |   Requesting VC 2 at output 12 (in_pri: 0, out_pri: 0).
6 | network_0/router_level2_11 |   Requesting VC 3 at output 12 (in_pri: 0, out_pri: 0).
6 | network_0/router_level2_11/vc_allocator | Input requests = [ 0 -> [ 40@0 41@0 42@0 43@0 ]  4 -> [ 48@0 49@0 50@0 51@0 ]  ], output requests = [ 40 -> [ 0@0 ]  41 -> [ 0@0 ]  42 -> [ 0@0 ]  43 -> [ 0@0 ]  48 -> [ 4@0 ]  49 -> [ 4@0 ]  50 -> [ 4@0 ]  51 -> [ 4@0 ]  ].
6 | network_0/router_level2_11/vc_allocator | Input grants = [ 0 -> 40  4 -> 48  ], output grants = [ 40 -> 0  48 -> 4  ].
6 | network_0/router_level2_11 | Assigning VC 0 at output 10 to VC 0 at input 0.
6 | network_0/router_level2_11 | Assigning VC 0 at output 12 to VC 0 at input 1.
6 | network_0/router_level2_11 | Completed VC allocation for VC 0 at input 0 (front: 7).
6 | network_0/router_level2_11 |   Acquiring assigned VC 0 at output 10.
6 | network_0/router_level2_11/buf_0/vc_0 | Changing state from vc_alloc to active.
6 | network_0/router_level2_11 | Completed VC allocation for VC 0 at input 1 (front: 9).
6 | network_0/router_level2_11 |   Acquiring assigned VC 0 at output 12.
6 | network_0/router_level2_11/buf_1/vc_0 | Changing state from vc_alloc to active.
6 | network_0/router_level2_14 | Adding flit 8 to VC 0 at input 0 (state: idle, empty).
6 | network_0/router_level2_14 | Using precomputed lookahead routing information for VC 0 at input 0 (front: 8).
6 | network_0/router_level2_14/buf_0/vc_0 | Changing state from idle to vc_alloc.
6 | network_0/router_level2_14 | Beginning VC allocation for VC 0 at input 0 (front: 8).
6 | network_0/router_level2_14 |   Requesting VC 0 at output 12 (in_pri: 0, out_pri: 0).
6 | network_0/router_level2_14 |   Requesting VC 1 at output 12 (in_pri: 0, out_pri: 0).
6 | network_0/router_level2_14 |   Requesting VC 2 at output 12 (in_pri: 0, out_pri: 0).
6 | network_0/router_level2_14 |   Requesting VC 3 at output 12 (in_pri: 0, out_pri: 0).
6 | network_0/router_level2_14/vc_allocator | Input requests = [ 0 -> [ 48@0 49@0 50@0 51@0 ]  24 -> [ 48@0 49@0 50@0 51@0 ]  28 -> [ 36@0 37@0 38@0 39@0 ]  ], output requests = [ 36 -> [ 28@0 ]  37 -> [ 28@0 ]  38 -> [ 28@0 ]  39 -> [ 28@0 ]  48 -> [ 0@0 24@0 ]  49 -> [ 0@0 24@0 ]  50 -> [ 0@0 24@0 ]  51 -> [ 0@0 24@0 ]  ].
6 | network_0/router_level2_14/vc_allocator | Input grants = [ 0 -> 48  28 -> 36  ], output grants = [ 36 -> 28  48 -> 0  ].
6 | network_0/router_level2_14 | Assigning VC 0 at output 12 to VC 0 at input 0.
6 | network_0/router_level2_14 | Completed VC allocation for VC 0 at input 0 (front: 8).
6 | network_0/router_level2_14 |   Acquiring assigned VC 0 at output 12.
6 | network_0/router_level2_14/buf_0/vc_0 | Changing state from vc_alloc to active.
6 | network_0/network_0_fchan_20493 | Completed channel traversal for flit 1.
7 | network_0/router_level2_5 | Received flit 1 from channel at input 1.
7 | network_0/router_level2_0 | Beginning switch allocation for VC 0 at input 6 (front: 5).
7 | network_0/router_level2_0 |   Requesting output 10.0 (non-spec, pri: 0).
7 | network_0/router_level2_0 | Beginning switch allocation for VC 0 at input 7 (front: 6).
7 | network_0/router_level2_0 |   Requesting output 15.0 (non-spec, pri: 0).
7 | network_0/router_level2_0/sw_allocator | Input requests = [ 6 -> [ 10@0 ]  7 -> [ 15@0 ]  ], output requests = [ 10 -> [ 6@0 ]  15 -> [ 7@0 ]  ].
7 | network_0/router_level2_0/sw_allocator | Input grants = [ 6 -> 10  7 -> 15  ], output grants = [ 10 -> 6  15 -> 7  ].
7 | network_0/router_level2_0 | Assigning output 10.0 to VC 0 at input 6.0.
7 | network_0/router_level2_0 | Assigning output 15.0 to VC 0 at input 7.0.
7 | network_0/router_level2_0 | Completed switch allocation for VC 0 at input 6 (front: 5).
7 | network_0/router_level2_0 |   Scheduling switch connection from input 6.0 to output 10.0.
7 | network_0/router_level2_0 | Updating lookahead routing information for flit 5.
7 | network_0/router_level2_0 | Completed switch allocation for VC 0 at input 7 (front: 6).
7 | network_0/router_level2_0 |   Scheduling switch connection from input 7.0 to output 15.0.
7 | network_0/router_level2_0 | Updating lookahead routing information for flit 6.
7 | network_0/router_level2_1 | Beginning switch allocation for VC 0 at input 5 (front: 3).
7 | network_0/router_level2_1 |   Requesting output 15.0 (non-spec, pri: 0).
7 | network_0/router_level2_1/sw_allocator | Input requests = [ 5 -> [ 15@0 ]  ], output requests = [ 15 -> [ 5@0 ]  ].
7 | network_0/router_level2_1/sw_allocator | Input grants = [ 5 -> 15  ], output grants = [ 15 -> 5  ].
7 | network_0/router_level2_1 | Assigning output 15.0 to VC 0 at input 5.0.
7 | network_0/router_level2_1 | Completed switch allocation for VC 0 at input 5 (front: 3).
7 | network_0/router_level2_1 |   Scheduling switch connection from input 5.0 to output 15.0.
7 | network_0/router_level2_1 | Updating lookahead routing information for flit 3.
7 | network_0/router_level2_5 | Adding flit 1 to VC 1 at input 1 (state: idle, empty).
7 | network_0/router_level2_5 | Using precomputed lookahead routing information for VC 1 at input 1 (front: 1).
7 | network_0/router_level2_5/buf_1/vc_1 | Changing state from idle to vc_alloc.
7 | network_0/router_level2_5 | Beginning VC allocation for VC 1 at input 1 (front: 1).
7 | network_0/router_level2_5 |   Requesting VC 0 at output 13 (in_pri: 0, out_pri: 0).
7 | network_0/router_level2_5 |   Requesting VC 1 at output 13 (in_pri: 0, out_pri: 0).
7 | network_0/router_level2_5 |   Requesting VC 2 at output 13 (in_pri: 0, out_pri: 0).
7 | network_0/router_level2_5 |   Requesting VC 3 at output 13 (in_pri: 0, out_pri: 0).
7 | network_0/router_level2_5/vc_allocator | Input requests = [ 0 -> [ 24@0 25@0 26@0 27@0 ]  5 -> [ 52@0 53@0 54@0 55@0 ]  ], output requests = [ 24 -> [ 0@0 ]  25 -> [ 0@0 ]  26 -> [ 0@0 ]  27 -> [ 0@0 ]  52 -> [ 5@0 ]  53 -> [ 5@0 ]  54 -> [ 5@0 ]  55 -> [ 5@0 ]  ].
7 | network_0/router_level2_5/vc_allocator | Input grants = [ 0 -> 24  5 -> 52  ], output grants = [ 24 -> 0  52 -> 5  ].
7 | network_0/router_level2_5 | Assigning VC 0 at output 13 to VC 1 at input 1.
7 | network_0/router_level2_5 | Completed VC allocation for VC 1 at input 1 (front: 1).
7 | network_0/router_level2_5 |   Acquiring assigned VC 0 at output 13.
7 | network_0/router_level2_5/buf_1/vc_1 | Changing state from vc_alloc to active.
7 | network_0/router_level2_6 | Beginning VC allocation for VC 0 at input 6 (front: 4).
7 | network_0/router_level2_6 |   VC 0 at output 14 is in use by VC 0 at input 4 (front flit: 2).
7 | network_0/router_level2_6 |   Requesting VC 1 at output 14 (in_pri: 0, out_pri: 0).
7 | network_0/router_level2_6 |   Requesting VC 2 at output 14 (in_pri: 0, out_pri: 0).
7 | network_0/router_level2_6 |   Requesting VC 3 at output 14 (in_pri: 0, out_pri: 0).
7 | network_0/router_level2_6/vc_allocator | Input requests = [ 4 -> [ 60@0 61@0 62@0 63@0 ]  24 -> [ 57@0 58@0 59@0 ]  28 -> [ 60@0 61@0 62@0 63@0 ]  ], output requests = [ 57 -> [ 24@0 ]  58 -> [ 24@0 ]  59 -> [ 24@0 ]  60 -> [ 4@0 28@0 ]  61 -> [ 4@0 28@0 ]  62 -> [ 4@0 28@0 ]  63 -> [ 4@0 28@0 ]  ].
7 | network_0/router_level2_6/vc_allocator | Input grants = [ 4 -> 60  24 -> 57  ], output grants = [ 57 -> 24  60 -> 4  ].
7 | network_0/router_level2_6 | Assigning VC 1 at output 14 to VC 0 at input 6.
7 | network_0/router_level2_6 | Beginning switch allocation for VC 0 at input 4 (front: 2).
7 | network_0/router_level2_6 |   Requesting output 14.0 (non-spec, pri: 0).
7 | network_0/router_level2_6/sw_allocator | Input requests = [ 4 -> [ 14@0 ]  ], output requests = [ 14 -> [ 4@0 ]  ].
7 | network_0/router_level2_6/sw_allocator | Input grants = [ 4 -> 14  ], output grants = [ 14 -> 4  ].
7 | network_0/router_level2_6 | Assigning output 14.0 to VC 0 at input 4.0.
7 | network_0/router_level2_6 | Completed VC allocation for VC 0 at input 6 (front: 4).
7 | network_0/router_level2_6 |   Acquiring assigned VC 1 at output 14.
7 | network_0/router_level2_6/buf_6/vc_0 | Changing state from vc_alloc to active.
7 | network_0/router_level2_6 | Completed switch allocation for VC 0 at input 4 (front: 2).
7 | network_0/router_level2_6 |   Scheduling switch connection from input 4.0 to output 14.0.
7 | network_0/router_level2_6 | Updating lookahead routing information for flit 2.
7 | network_0/router_level2_9 | Beginning switch allocation for VC 0 at input 1 (front: 10).
7 | network_0/router_level2_9 |   Requesting output 13.0 (non-spec, pri: 0).
7 | network_0/router_level2_9/sw_allocator | Input requests = [ 1 -> [ 13@0 ]  2 -> [ 11@0 ]  3 -> [ 14@0 ]  ], output requests = [ 11 -> [ 2@0 ]  13 -> [ 1@0 ]  14 -> [ 3@0 ]  ].
7 | network_0/router_level2_9/sw_allocator | Input grants = [ 1 -> 13  2 -> 11  3 -> 14  ], output grants = [ 11 -> 2  13 -> 1  14 -> 3  ].
7 | network_0/router_level2_9 | Assigning output 13.0 to VC 0 at input 1.0.
7 | network_0/router_level2_9 | Completed switch allocation for VC 0 at input 1 (front: 10).
7 | network_0/router_level2_9 |   Scheduling switch connection from input 1.0 to output 13.0.
7 | network_0/router_level2_9 | Updating lookahead routing information for flit 10.
7 | network_0/router_level2_11 | Beginning switch allocation for VC 0 at input 0 (front: 7).
7 | network_0/router_level2_11 |   Requesting output 10.0 (non-spec, pri: 0).
7 | network_0/router_level2_11 | Beginning switch allocation for VC 0 at input 1 (front: 9).
7 | network_0/router_level2_11 |   Requesting output 12.0 (non-spec, pri: 0).
7 | network_0/router_level2_11/sw_allocator | Input requests = [ 0 -> [ 10@0 ]  1 -> [ 12@0 ]  ], output requests = [ 10 -> [ 0@0 ]  12 -> [ 1@0 ]  ].
7 | network_0/router_level2_11/sw_allocator | Input grants = [ 0 -> 10  1 -> 12  ], output grants = [ 10 -> 0  12 -> 1  ].
7 | network_0/router_level2_11 | Assigning output 10.0 to VC 0 at input 0.0.
7 | network_0/router_level2_11 | Assigning output 12.0 to VC 0 at input 1.0.
7 | network_0/router_level2_11 | Completed switch allocation for VC 0 at input 0 (front: 7).
7 | network_0/router_level2_11 |   Scheduling switch connection from input 0.0 to output 10.0.
7 | network_0/router_level2_11 | Updating lookahead routing information for flit 7.
7 | network_0/router_level2_11 | Completed switch allocation for VC 0 at input 1 (front: 9).
7 | network_0/router_level2_11 |   Scheduling switch connection from input 1.0 to output 12.0.
7 | network_0/router_level2_11 | Updating lookahead routing information for flit 9.
7 | network_0/router_level2_14 | Beginning switch allocation for VC 0 at input 0 (front: 8).
7 | network_0/router_level2_14 |   Requesting output 12.0 (non-spec, pri: 0).
7 | network_0/router_level2_14/sw_allocator | Input requests = [ 0 -> [ 12@0 ]  7 -> [ 9@0 ]  ], output requests = [ 9 -> [ 7@0 ]  12 -> [ 0@0 ]  ].
7 | network_0/router_level2_14/sw_allocator | Input grants = [ 0 -> 12  7 -> 9  ], output grants = [ 9 -> 7  12 -> 0  ].
7 | network_0/router_level2_14 | Assigning output 12.0 to VC 0 at input 0.0.
7 | network_0/router_level2_14 | Completed switch allocation for VC 0 at input 0 (front: 8).
7 | network_0/router_level2_14 |   Scheduling switch connection from input 0.0 to output 12.0.
7 | network_0/router_level2_14 | Updating lookahead routing information for flit 8.
8 | network_0/router_level2_0 | Beginning crossbar traversal for flit 5 from input 6.0 to output 10.0.
8 | network_0/router_level2_0 | Beginning crossbar traversal for flit 6 from input 7.0 to output 15.0.
8 | network_0/router_level2_0 | Completed crossbar traversal for flit 5 from input 6.0 to output 10.0.
8 | network_0/router_level2_0 | Buffering flit 5 at output 10.
8 | network_0/router_level2_0 | Completed crossbar traversal for flit 6 from input 7.0 to output 15.0.
8 | network_0/router_level2_0 | Buffering flit 6 at output 15.
8 | network_0/router_level2_1 | Beginning crossbar traversal for flit 3 from input 5.0 to output 15.0.
8 | network_0/router_level2_1 | Completed crossbar traversal for flit 3 from input 5.0 to output 15.0.
8 | network_0/router_level2_1 | Buffering flit 3 at output 15.
8 | network_0/router_level2_5 | Beginning switch allocation for VC 1 at input 1 (front: 1).
8 | network_0/router_level2_5 |   Requesting output 13.0 (non-spec, pri: 0).
8 | network_0/router_level2_5/sw_allocator | Input requests = [ 0 -> [ 6@0 ]  1 -> [ 13@0 ]  ], output requests = [ 6 -> [ 0@0 ]  13 -> [ 1@0 ]  ].
8 | network_0/router_level2_5/sw_allocator | Input grants = [ 0 -> 6  1 -> 13  ], output grants = [ 6 -> 0  13 -> 1  ].
8 | network_0/router_level2_5 | Assigning output 13.0 to VC 1 at input 1.0.
8 | network_0/router_level2_5 | Completed switch allocation for VC 1 at input 1 (front: 1).
8 | network_0/router_level2_5 |   Scheduling switch connection from input 1.0 to output 13.0.
8 | network_0/router_level2_5 | Updating lookahead routing information for flit 1.
8 | network_0/router_level2_6 | Beginning switch allocation for VC 0 at input 6 (front: 4).
8 | network_0/router_level2_6 |   Requesting output 14.0 (non-spec, pri: 0).
8 | network_0/router_level2_6/sw_allocator | Input requests = [ 1 -> [ 15@0 ]  6 -> [ 14@0 ]  ], output requests = [ 14 -> [ 6@0 ]  15 -> [ 1@0 ]  ].
8 | network_0/router_level2_6/sw_allocator | Input grants = [ 1 -> 15  6 -> 14  ], output grants = [ 14 -> 6  15 -> 1  ].
8 | network_0/router_level2_6 | Assigning output 14.0 to VC 0 at input 6.0.
8 | network_0/router_level2_6 | Beginning crossbar traversal for flit 2 from input 4.0 to output 14.0.
8 | network_0/router_level2_6 | Completed switch allocation for VC 0 at input 6 (front: 4).
8 | network_0/router_level2_6 |   Scheduling switch connection from input 6.0 to output 14.0.
8 | network_0/router_level2_6 | Updating lookahead routing information for flit 4.
8 | network_0/router_level2_6 | Completed crossbar traversal for flit 2 from input 4.0 to output 14.0.
8 | network_0/router_level2_6 | Buffering flit 2 at output 14.
8 | network_0/router_level2_9 | Beginning crossbar traversal for flit 10 from input 1.0 to output 13.0.
8 | network_0/router_level2_9 | Completed crossbar traversal for flit 10 from input 1.0 to output 13.0.
8 | network_0/router_level2_9 | Buffering flit 10 at output 13.
8 | network_0/router_level2_11 | Beginning crossbar traversal for flit 7 from input 0.0 to output 10.0.
8 | network_0/router_level2_11 | Beginning crossbar traversal for flit 9 from input 1.0 to output 12.0.
8 | network_0/router_level2_11 | Completed crossbar traversal for flit 7 from input 0.0 to output 10.0.
8 | network_0/router_level2_11 | Buffering flit 7 at output 10.
8 | network_0/router_level2_11 | Completed crossbar traversal for flit 9 from input 1.0 to output 12.0.
8 | network_0/router_level2_11 | Buffering flit 9 at output 12.
8 | network_0/router_level2_14 | Beginning crossbar traversal for flit 8 from input 0.0 to output 12.0.
8 | network_0/router_level2_14 | Completed crossbar traversal for flit 8 from input 0.0 to output 12.0.
8 | network_0/router_level2_14 | Buffering flit 8 at output 12.
8 | network_0/router_level2_0 | Sending flit 5 to channel at output 10.
8 | network_0/router_level2_0 | Sending flit 6 to channel at output 15.
8 | network_0/router_level2_1 | Sending flit 3 to channel at output 15.
8 | network_0/router_level2_6 | Sending flit 2 to channel at output 14.
8 | network_0/router_level2_9 | Sending flit 10 to channel at output 13.
8 | network_0/router_level2_11 | Sending flit 7 to channel at output 10.
8 | network_0/router_level2_11 | Sending flit 9 to channel at output 12.
8 | network_0/router_level2_14 | Sending flit 8 to channel at output 12.
9 | network_0/network_0_fchan_12290 | Beginning channel traversal for flit 5 with delay 1.
9 | network_0/network_0_fchan_12295 | Beginning channel traversal for flit 6 with delay 1.
9 | network_0/network_0_fchan_12303 | Beginning channel traversal for flit 3 with delay 1.
9 | network_0/network_0_fchan_12342 | Beginning channel traversal for flit 2 with delay 1.
9 | network_0/network_0_fchan_12365 | Beginning channel traversal for flit 10 with delay 1.
9 | network_0/network_0_fchan_12378 | Beginning channel traversal for flit 7 with delay 1.
9 | network_0/network_0_fchan_12380 | Beginning channel traversal for flit 9 with delay 1.
9 | network_0/network_0_fchan_12404 | Beginning channel traversal for flit 8 with delay 1.
9 | network_0/router_level2_5 | Beginning crossbar traversal for flit 1 from input 1.0 to output 13.0.
9 | network_0/router_level2_5 | Completed crossbar traversal for flit 1 from input 1.0 to output 13.0.
9 | network_0/router_level2_5 | Buffering flit 1 at output 13.
9 | network_0/router_level2_6 | Beginning crossbar traversal for flit 4 from input 6.0 to output 14.0.
9 | network_0/router_level2_6 | Completed crossbar traversal for flit 4 from input 6.0 to output 14.0.
9 | network_0/router_level2_6 | Buffering flit 4 at output 14.
9 | network_0/network_0_fchan_12290 | Completed channel traversal for flit 5.
9 | network_0/network_0_fchan_12295 | Completed channel traversal for flit 6.
9 | network_0/network_0_fchan_12303 | Completed channel traversal for flit 3.
9 | network_0/network_0_fchan_12342 | Completed channel traversal for flit 2.
9 | network_0/network_0_fchan_12365 | Completed channel traversal for flit 10.
9 | network_0/network_0_fchan_12378 | Completed channel traversal for flit 7.
9 | network_0/network_0_fchan_12380 | Completed channel traversal for flit 9.
9 | network_0/network_0_fchan_12404 | Completed channel traversal for flit 8.
9 | network_0/router_level2_5 | Sending flit 1 to channel at output 13.
9 | network_0/router_level2_6 | Sending flit 4 to channel at output 14.
10 | network_0/network_0_fchan_12333 | Beginning channel traversal for flit 1 with delay 1.
10 | network_0/network_0_fchan_12342 | Beginning channel traversal for flit 4 with delay 1.
10 | network_0/router_level1_16 | Received flit 5 from channel at input 0.
10 | network_0/router_level1_19 | Received flit 7 from channel at input 1.
10 | network_0/router_level1_35 | Received flit 9 from channel at input 1.
10 | network_0/router_level1_38 | Received flit 8 from channel at input 1.
10 | network_0/router_level1_41 | Received flit 10 from channel at input 1.
10 | network_0/router_level1_54 | Received flit 2 from channel at input 0.
10 | network_0/router_level1_56 | Received flit 6 from channel at input 0.
10 | network_0/router_level1_57 | Received flit 3 from channel at input 0.
10 | network_0/router_level1_16 | Adding flit 5 to VC 0 at input 0 (state: idle, empty).
10 | network_0/router_level1_16 | Using precomputed lookahead routing information for VC 0 at input 0 (front: 5).
10 | network_0/router_level1_16/buf_0/vc_0 | Changing state from idle to vc_alloc.
10 | network_0/router_level1_16 | Beginning VC allocation for VC 0 at input 0 (front: 5).
10 | network_0/router_level1_16 |   Requesting VC 0 at output 14 (in_pri: 0, out_pri: 0).
10 | network_0/router_level1_16 |   Requesting VC 1 at output 14 (in_pri: 0, out_pri: 0).
10 | network_0/router_level1_16 |   Requesting VC 2 at output 14 (in_pri: 0, out_pri: 0).
10 | network_0/router_level1_16 |   Requesting VC 3 at output 14 (in_pri: 0, out_pri: 0).
10 | network_0/router_level1_16/vc_allocator | Input requests = [ 0 -> [ 56@0 57@0 58@0 59@0 ]  4 -> [ 60@0 61@0 62@0 63@0 ]  20 -> [ 56@0 57@0 58@0 59@0 ]  ], output requests = [ 56 -> [ 0@0 20@0 ]  57 -> [ 0@0 20@0 ]  58 -> [ 0@0 20@0 ]  59 -> [ 0@0 20@0 ]  60 -> [ 4@0 ]  61 -> [ 4@0 ]  62 -> [ 4@0 ]  63 -> [ 4@0 ]  ].
10 | network_0/router_level1_16/vc_allocator | Input grants = [ 0 -> 56  4 -> 60  ], output grants = [ 56 -> 0  60 -> 4  ].
10 | network_0/router_level1_16 | Assigning VC 0 at output 14 to VC 0 at input 0.
10 | network_0/router_level1_16 | Completed VC allocation for VC 0 at input 0 (front: 5).
10 | network_0/router_level1_16 |   Acquiring assigned VC 0 at output 14.
10 | network_0/router_level1_16/buf_0/vc_0 | Changing state from vc_alloc to active.
10 | network_0/router_level1_19 | Adding flit 7 to VC 0 at input 1 (state: idle, empty).
10 | network_0/router_level1_19 | Using precomputed lookahead routing information for VC 0 at input 1 (front: 7).
10 | network_0/router_level1_19/buf_1/vc_0 | Changing state from idle to vc_alloc.
10 | network_0/router_level1_19 | Beginning VC allocation for VC 0 at input 1 (front: 7).
10 | network_0/router_level1_19 |   Requesting VC 0 at output 15 (in_pri: 0, out_pri: 0).
10 | network_0/router_level1_19 |   Requesting VC 1 at output 15 (in_pri: 0, out_pri: 0).
10 | network_0/router_level1_19 |   Requesting VC 2 at output 15 (in_pri: 0, out_pri: 0).
10 | network_0/router_level1_19 |   Requesting VC 3 at output 15 (in_pri: 0, out_pri: 0).
10 | network_0/router_level1_19/vc_allocator | Input requests = [ 4 -> [ 60@0 61@0 62@0 63@0 ]  8 -> [ 44@0 45@0 46@0 47@0 ]  ], output requests = [ 44 -> [ 8@0 ]  45 -> [ 8@0 ]  46 -> [ 8@0 ]  47 -> [ 8@0 ]  60 -> [ 4@0 ]  61 -> [ 4@0 ]  62 -> [ 4@0 ]  63 -> [ 4@0 ]  ].
10 | network_0/router_level1_19/vc_allocator | Input grants = [ 4 -> 60  8 -> 44  ], output grants = [ 44 -> 8  60 -> 4  ].
10 | network_0/router_level1_19 | Assigning VC 0 at output 15 to VC 0 at input 1.
10 | network_0/router_level1_19 | Completed VC allocation for VC 0 at input 1 (front: 7).
10 | network_0/router_level1_19 |   Acquiring assigned VC 0 at output 15.
10 | network_0/router_level1_19/buf_1/vc_0 | Changing state from vc_alloc to active.
10 | network_0/router_level1_35 | Adding flit 9 to VC 0 at input 1 (state: idle, empty).
10 | network_0/router_level1_35 | Using precomputed lookahead routing information for VC 0 at input 1 (front: 9).
10 | network_0/router_level1_35/buf_1/vc_0 | Changing state from idle to vc_alloc.
10 | network_0/router_level1_35 | Beginning VC allocation for VC 0 at input 1 (front: 9).
10 | network_0/router_level1_35 |   Requesting VC 0 at output 7 (in_pri: 0, out_pri: 0).
10 | network_0/router_level1_35 |   Requesting VC 1 at output 7 (in_pri: 0, out_pri: 0).
10 | network_0/router_level1_35 |   Requesting VC 2 at output 7 (in_pri: 0, out_pri: 0).
10 | network_0/router_level1_35 |   Requesting VC 3 at output 7 (in_pri: 0, out_pri: 0).
10 | network_0/router_level1_35/vc_allocator | Input requests = [ 4 -> [ 28@0 29@0 30@0 31@0 ]  ], output requests = [ 28 -> [ 4@0 ]  29 -> [ 4@0 ]  30 -> [ 4@0 ]  31 -> [ 4@0 ]  ].
10 | network_0/router_level1_35/vc_allocator | Input grants = [ 4 -> 28  ], output grants = [ 28 -> 4  ].
10 | network_0/router_level1_35 | Assigning VC 0 at output 7 to VC 0 at input 1.
10 | network_0/router_level1_35 | Completed VC allocation for VC 0 at input 1 (front: 9).
10 | network_0/router_level1_35 |   Acquiring assigned VC 0 at output 7.
10 | network_0/router_level1_35/buf_1/vc_0 | Changing state from vc_alloc to active.
10 | network_0/router_level1_38 | Adding flit 8 to VC 0 at input 1 (state: idle, empty).
10 | network_0/router_level1_38 | Using precomputed lookahead routing information for VC 0 at input 1 (front: 8).
10 | network_0/router_level1_38/buf_1/vc_0 | Changing state from idle to vc_alloc.
10 | network_0/router_level1_38 | Beginning VC allocation for VC 0 at input 1 (front: 8).
10 | network_0/router_level1_38 |   Requesting VC 0 at output 10 (in_pri: 0, out_pri: 0).
10 | network_0/router_level1_38 |   Requesting VC 1 at output 10 (in_pri: 0, out_pri: 0).
10 | network_0/router_level1_38 |   Requesting VC 2 at output 10 (in_pri: 0, out_pri: 0).
10 | network_0/router_level1_38 |   Requesting VC 3 at output 10 (in_pri: 0, out_pri: 0).
10 | network_0/router_level1_38/vc_allocator | Input requests = [ 4 -> [ 40@0 41@0 42@0 43@0 ]  ], output requests = [ 40 -> [ 4@0 ]  41 -> [ 4@0 ]  42 -> [ 4@0 ]  43 -> [ 4@0 ]  ].
10 | network_0/router_level1_38/vc_allocator | Input grants = [ 4 -> 40  ], output grants = [ 40 -> 4  ].
10 | network_0/router_level1_38 | Assigning VC 0 at output 10 to VC 0 at input 1.
10 | network_0/router_level1_38 | Completed VC allocation for VC 0 at input 1 (front: 8).
10 | network_0/router_level1_38 |   Acquiring assigned VC 0 at output 10.
10 | network_0/router_level1_38/buf_1/vc_0 | Changing state from vc_alloc to active.
10 | network_0/router_level1_41 | Adding flit 10 to VC 0 at input 1 (state: idle, empty).
10 | network_0/router_level1_41 | Using precomputed lookahead routing information for VC 0 at input 1 (front: 10).
10 | network_0/router_level1_41/buf_1/vc_0 | Changing state from idle to vc_alloc.
10 | network_0/router_level1_41 | Beginning VC allocation for VC 0 at input 1 (front: 10).
10 | network_0/router_level1_41 |   Requesting VC 0 at output 12 (in_pri: 0, out_pri: 0).
10 | network_0/router_level1_41 |   Requesting VC 1 at output 12 (in_pri: 0, out_pri: 0).
10 | network_0/router_level1_41 |   Requesting VC 2 at output 12 (in_pri: 0, out_pri: 0).
10 | network_0/router_level1_41 |   Requesting VC 3 at output 12 (in_pri: 0, out_pri: 0).
10 | network_0/router_level1_41/vc_allocator | Input requests = [ 4 -> [ 48@0 49@0 50@0 51@0 ]  ], output requests = [ 48 -> [ 4@0 ]  49 -> [ 4@0 ]  50 -> [ 4@0 ]  51 -> [ 4@0 ]  ].
10 | network_0/router_level1_41/vc_allocator | Input grants = [ 4 -> 48  ], output grants = [ 48 -> 4  ].
10 | network_0/router_level1_41 | Assigning VC 0 at output 12 to VC 0 at input 1.
10 | network_0/router_level1_41 | Completed VC allocation for VC 0 at input 1 (front: 10).
10 | network_0/router_level1_41 |   Acquiring assigned VC 0 at output 12.
10 | network_0/router_level1_41/buf_1/vc_0 | Changing state from vc_alloc to active.
10 | network_0/router_level1_54 | Adding flit 2 to VC 0 at input 0 (state: idle, empty).
10 | network_0/router_level1_54 | Using precomputed lookahead routing information for VC 0 at input 0 (front: 2).
10 | network_0/router_level1_54/buf_0/vc_0 | Changing state from idle to vc_alloc.
10 | network_0/router_level1_54 | Beginning VC allocation for VC 0 at input 0 (front: 2).
10 | network_0/router_level1_54 |   Requesting VC 0 at output 9 (in_pri: 0, out_pri: 0).
10 | network_0/router_level1_54 |   Requesting VC 1 at output 9 (in_pri: 0, out_pri: 0).
10 | network_0/router_level1_54 |   Requesting VC 2 at output 9 (in_pri: 0, out_pri: 0).
10 | network_0/router_level1_54 |   Requesting VC 3 at output 9 (in_pri: 0, out_pri: 0).
10 | network_0/router_level1_54/vc_allocator | Input requests = [ 0 -> [ 36@0 37@0 38@0 39@0 ]  12 -> [ 48@0 49@0 50@0 51@0 ]  ], output requests = [ 36 -> [ 0@0 ]  37 -> [ 0@0 ]  38 -> [ 0@0 ]  39 -> [ 0@0 ]  48 -> [ 12@0 ]  49 -> [ 12@0 ]  50 -> [ 12@0 ]  51 -> [ 12@0 ]  ].
10 | network_0/router_level1_54/vc_allocator | Input grants = [ 0 -> 36  12 -> 48  ], output grants = [ 36 -> 0  48 -> 12  ].
10 | network_0/router_level1_54 | Assigning VC 0 at output 9 to VC 0 at input 0.
10 | network_0/router_level1_54 | Completed VC allocation for VC 0 at input 0 (front: 2).
10 | network_0/router_level1_54 |   Acquiring assigned VC 0 at output 9.
10 | network_0/router_level1_54/buf_0/vc_0 | Changing state from vc_alloc to active.
10 | network_0/router_level1_56 | Adding flit 6 to VC 0 at input 0 (state: idle, empty).
10 | network_0/router_level1_56 | Using precomputed lookahead routing information for VC 0 at input 0 (front: 6).
10 | network_0/router_level1_56/buf_0/vc_0 | Changing state from idle to vc_alloc.
10 | network_0/router_level1_56 | Beginning VC allocation for VC 0 at input 0 (front: 6).
10 | network_0/router_level1_56 |   Requesting VC 0 at output 13 (in_pri: 0, out_pri: 0).
10 | network_0/router_level1_56 |   Requesting VC 1 at output 13 (in_pri: 0, out_pri: 0).
10 | network_0/router_level1_56 |   Requesting VC 2 at output 13 (in_pri: 0, out_pri: 0).
10 | network_0/router_level1_56 |   Requesting VC 3 at output 13 (in_pri: 0, out_pri: 0).
10 | network_0/router_level1_56/vc_allocator | Input requests = [ 0 -> [ 52@0 53@0 54@0 55@0 ]  16 -> [ 44@0 45@0 46@0 47@0 ]  ], output requests = [ 44 -> [ 16@0 ]  45 -> [ 16@0 ]  46 -> [ 16@0 ]  47 -> [ 16@0 ]  52 -> [ 0@0 ]  53 -> [ 0@0 ]  54 -> [ 0@0 ]  55 -> [ 0@0 ]  ].
10 | network_0/router_level1_56/vc_allocator | Input grants = [ 0 -> 52  16 -> 44  ], output grants = [ 44 -> 16  52 -> 0  ].
10 | network_0/router_level1_56 | Assigning VC 0 at output 13 to VC 0 at input 0.
10 | network_0/router_level1_56 | Completed VC allocation for VC 0 at input 0 (front: 6).
10 | network_0/router_level1_56 |   Acquiring assigned VC 0 at output 13.
10 | network_0/router_level1_56/buf_0/vc_0 | Changing state from vc_alloc to active.
10 | network_0/router_level1_57 | Adding flit 3 to VC 0 at input 0 (state: idle, empty).
10 | network_0/router_level1_57 | Using precomputed lookahead routing information for VC 0 at input 0 (front: 3).
10 | network_0/router_level1_57/buf_0/vc_0 | Changing state from idle to vc_alloc.
10 | network_0/router_level1_57 | Beginning VC allocation for VC 0 at input 0 (front: 3).
10 | network_0/router_level1_57 |   Requesting VC 0 at output 11 (in_pri: 0, out_pri: 0).
10 | network_0/router_level1_57 |   Requesting VC 1 at output 11 (in_pri: 0, out_pri: 0).
10 | network_0/router_level1_57 |   Requesting VC 2 at output 11 (in_pri: 0, out_pri: 0).
10 | network_0/router_level1_57 |   Requesting VC 3 at output 11 (in_pri: 0, out_pri: 0).
10 | network_0/router_level1_57/vc_allocator | Input requests = [ 0 -> [ 44@0 45@0 46@0 47@0 ]  8 -> [ 32@0 33@0 34@0 35@0 ]  ], output requests = [ 32 -> [ 8@0 ]  33 -> [ 8@0 ]  34 -> [ 8@0 ]  35 -> [ 8@0 ]  44 -> [ 0@0 ]  45 -> [ 0@0 ]  46 -> [ 0@0 ]  47 -> [ 0@0 ]  ].
10 | network_0/router_level1_57/vc_allocator | Input grants = [ 0 -> 44  8 -> 32  ], output grants = [ 32 -> 8  44 -> 0  ].
10 | network_0/router_level1_57 | Assigning VC 0 at output 11 to VC 0 at input 0.
10 | network_0/router_level1_57 | Completed VC allocation for VC 0 at input 0 (front: 3).
10 | network_0/router_level1_57 |   Acquiring assigned VC 0 at output 11.
10 | network_0/router_level1_57/buf_0/vc_0 | Changing state from vc_alloc to active.
10 | network_0/network_0_fchan_12333 | Completed channel traversal for flit 1.
10 | network_0/network_0_fchan_12342 | Completed channel traversal for flit 4.
11 | network_0/router_level1_45 | Received flit 1 from channel at input 0.
11 | network_0/router_level1_54 | Received flit 4 from channel at input 0.
11 | network_0/router_level1_16 | Beginning switch allocation for VC 0 at input 0 (front: 5).
11 | network_0/router_level1_16 |   Requesting output 14.0 (non-spec, pri: 0).
11 | network_0/router_level1_16/sw_allocator | Input requests = [ 0 -> [ 14@0 ]  1 -> [ 15@0 ]  ], output requests = [ 14 -> [ 0@0 ]  15 -> [ 1@0 ]  ].
11 | network_0/router_level1_16/sw_allocator | Input grants = [ 0 -> 14  1 -> 15  ], output grants = [ 14 -> 0  15 -> 1  ].
11 | network_0/router_level1_16 | Assigning output 14.0 to VC 0 at input 0.0.
11 | network_0/router_level1_16 | Completed switch allocation for VC 0 at input 0 (front: 5).
11 | network_0/router_level1_16 |   Scheduling switch connection from input 0.0 to output 14.0.
11 | network_0/router_level1_16 | Updating lookahead routing information for flit 5.
11 | network_0/router_level1_19 | Beginning switch allocation for VC 0 at input 1 (front: 7).
11 | network_0/router_level1_19 |   Requesting output 15.0 (non-spec, pri: 0).
11 | network_0/router_level1_19/sw_allocator | Input requests = [ 1 -> [ 15@0 ]  2 -> [ 11@0 ]  ], output requests = [ 11 -> [ 2@0 ]  15 -> [ 1@0 ]  ].
11 | network_0/router_level1_19/sw_allocator | Input grants = [ 1 -> 15  2 -> 11  ], output grants = [ 11 -> 2  15 -> 1  ].
11 | network_0/router_level1_19 | Assigning output 15.0 to VC 0 at input 1.0.
11 | network_0/router_level1_19 | Completed switch allocation for VC 0 at input 1 (front: 7).
11 | network_0/router_level1_19 |   Scheduling switch connection from input 1.0 to output 15.0.
11 | network_0/router_level1_19 | Updating lookahead routing information for flit 7.
11 | network_0/router_level1_35 | Beginning switch allocation for VC 0 at input 1 (front: 9).
11 | network_0/router_level1_35 |   Requesting output 7.0 (non-spec, pri: 0).
11 | network_0/router_level1_35/sw_allocator | Input requests = [ 1 -> [ 7@0 ]  ], output requests = [ 7 -> [ 1@0 ]  ].
11 | network_0/router_level1_35/sw_allocator | Input grants = [ 1 -> 7  ], output grants = [ 7 -> 1  ].
11 | network_0/router_level1_35 | Assigning output 7.0 to VC 0 at input 1.0.
11 | network_0/router_level1_35 | Completed switch allocation for VC 0 at input 1 (front: 9).
11 | network_0/router_level1_35 |   Scheduling switch connection from input 1.0 to output 7.0.
11 | network_0/router_level1_35 | Updating lookahead routing information for flit 9.
11 | network_0/router_level1_38 | Beginning switch allocation for VC 0 at input 1 (front: 8).
11 | network_0/router_level1_38 |   Requesting output 10.0 (non-spec, pri: 0).
11 | network_0/router_level1_38/sw_allocator | Input requests = [ 1 -> [ 10@0 ]  ], output requests = [ 10 -> [ 1@0 ]  ].
11 | network_0/router_level1_38/sw_allocator | Input grants = [ 1 -> 10  ], output grants = [ 10 -> 1  ].
11 | network_0/router_level1_38 | Assigning output 10.0 to VC 0 at input 1.0.
11 | network_0/router_level1_38 | Completed switch allocation for VC 0 at input 1 (front: 8).
11 | network_0/router_level1_38 |   Scheduling switch connection from input 1.0 to output 10.0.
11 | network_0/router_level1_38 | Updating lookahead routing information for flit 8.
11 | network_0/router_level1_41 | Beginning switch allocation for VC 0 at input 1 (front: 10).
11 | network_0/router_level1_41 |   Requesting output 12.0 (non-spec, pri: 0).
11 | network_0/router_level1_41/sw_allocator | Input requests = [ 1 -> [ 12@0 ]  ], output requests = [ 12 -> [ 1@0 ]  ].
11 | network_0/router_level1_41/sw_allocator | Input grants = [ 1 -> 12  ], output grants = [ 12 -> 1  ].
11 | network_0/router_level1_41 | Assigning output 12.0 to VC 0 at input 1.0.
11 | network_0/router_level1_41 | Completed switch allocation for VC 0 at input 1 (front: 10).
11 | network_0/router_level1_41 |   Scheduling switch connection from input 1.0 to output 12.0.
11 | network_0/router_level1_41 | Updating lookahead routing information for flit 10.
11 | network_0/router_level1_45 | Adding flit 1 to VC 0 at input 0 (state: idle, empty).
11 | network_0/router_level1_45 | Using precomputed lookahead routing information for VC 0 at input 0 (front: 1).
11 | network_0/router_level1_45/buf_0/vc_0 | Changing state from idle to vc_alloc.
11 | network_0/router_level1_45 | Beginning VC allocation for VC 0 at input 0 (front: 1).
11 | network_0/router_level1_45 |   Requesting VC 0 at output 13 (in_pri: 0, out_pri: 0).
11 | network_0/router_level1_45 |   Requesting VC 1 at output 13 (in_pri: 0, out_pri: 0).
11 | network_0/router_level1_45 |   Requesting VC 2 at output 13 (in_pri: 0, out_pri: 0).
11 | network_0/router_level1_45 |   Requesting VC 3 at output 13 (in_pri: 0, out_pri: 0).
11 | network_0/router_level1_45/vc_allocator | Input requests = [ 0 -> [ 52@0 53@0 54@0 55@0 ]  24 -> [ 48@0 49@0 50@0 51@0 ]  ], output requests = [ 48 -> [ 24@0 ]  49 -> [ 24@0 ]  50 -> [ 24@0 ]  51 -> [ 24@0 ]  52 -> [ 0@0 ]  53 -> [ 0@0 ]  54 -> [ 0@0 ]  55 -> [ 0@0 ]  ].
11 | network_0/router_level1_45/vc_allocator | Input grants = [ 0 -> 52  24 -> 48  ], output grants = [ 48 -> 24  52 -> 0  ].
11 | network_0/router_level1_45 | Assigning VC 0 at output 13 to VC 0 at input 0.
11 | network_0/router_level1_45 | Completed VC allocation for VC 0 at input 0 (front: 1).
11 | network_0/router_level1_45 |   Acquiring assigned VC 0 at output 13.
11 | network_0/router_level1_45/buf_0/vc_0 | Changing state from vc_alloc to active.
11 | network_0/router_level1_54 | Adding flit 4 to VC 1 at input 0 (state: idle, empty).
11 | network_0/router_level1_54 | Using precomputed lookahead routing information for VC 1 at input 0 (front: 4).
11 | network_0/router_level1_54/buf_0/vc_1 | Changing state from idle to vc_alloc.
11 | network_0/router_level1_54 | Beginning VC allocation for VC 1 at input 0 (front: 4).
11 | network_0/router_level1_54 |   VC 0 at output 9 is in use by VC 0 at input 0 (front flit: 2).
11 | network_0/router_level1_54 |   Requesting VC 1 at output 9 (in_pri: 0, out_pri: 0).
11 | network_0/router_level1_54 |   Requesting VC 2 at output 9 (in_pri: 0, out_pri: 0).
11 | network_0/router_level1_54 |   Requesting VC 3 at output 9 (in_pri: 0, out_pri: 0).
[...]
27 | network_0/router_level3_305/vc_allocator | Input grants = [ 1 -> 36  32 -> 21  53 -> 0  ], output grants = [ 0 -> 53  21 -> 32  36 -> 1  ].
27 | network_0/router_level3_305 | VC allocation failed for VC 0 at input 14.
27 | network_0/router_level3_305 | Completed VC allocation for VC 0 at input 14 (front: 4).
27 | network_0/router_level3_305 |   No output VC allocated.
27 | network_0/router_level3_485 | Beginning switch allocation for VC 0 at input 8 (front: 5).
27 | network_0/router_level3_485 |   Requesting output 6.0 (non-spec, pri: 0).
27 | network_0/router_level3_485/sw_allocator | Input requests = [ 7 -> [ 11@0 ]  8 -> [ 6@0 ]  ], output requests = [ 6 -> [ 8@0 ]  11 -> [ 7@0 ]  ].
27 | network_0/router_level3_485/sw_allocator | Input grants = [ 7 -> 11  8 -> 6  ], output grants = [ 6 -> 8  11 -> 7  ].
27 | network_0/router_level3_485 | Assigning output 6.0 to VC 0 at input 8.0.
27 | network_0/router_level3_485 | Completed switch allocation for VC 0 at input 8 (front: 5).
27 | network_0/router_level3_485 |   Scheduling switch connection from input 8.0 to output 6.0.
28 | network_0/router_level3_129 | Beginning crossbar traversal for flit 10 from input 9.0 to output 6.0.
28 | network_0/router_level3_129 | Completed crossbar traversal for flit 10 from input 9.0 to output 6.0.
28 | network_0/router_level3_129 | Buffering flit 10 at output 6.
28 | network_0/router_level3_151 | Beginning switch allocation for VC 0 at input 9 (front: 3).
28 | network_0/router_level3_151 |   Requesting output 1.0 (non-spec, pri: 0).
28 | network_0/router_level3_151/sw_allocator | Input requests = [ 0 -> [ 10@0 ]  4 -> [ 11@0 ]  9 -> [ 1@0 ]  ], output requests = [ 1 -> [ 9@0 ]  10 -> [ 0@0 ]  11 -> [ 4@0 ]  ].
28 | network_0/router_level3_151/sw_allocator | Input grants = [ 0 -> 10  4 -> 11  9 -> 1  ], output grants = [ 1 -> 9  10 -> 0  11 -> 4  ].
28 | network_0/router_level3_151 | Assigning output 1.0 to VC 0 at input 9.0.
28 | network_0/router_level3_151 | Completed switch allocation for VC 0 at input 9 (front: 3).
28 | network_0/router_level3_151 |   Scheduling switch connection from input 9.0 to output 1.0.
28 | network_0/router_level3_171 | Beginning switch allocation for VC 0 at input 8 (front: 6).
28 | network_0/router_level3_171 |   Requesting output 2.0 (non-spec, pri: 0).
28 | network_0/router_level3_171/sw_allocator | Input requests = [ 1 -> [ 9@0 ]  2 -> [ 10@0 ]  5 -> [ 14@0 ]  8 -> [ 2@0 ]  14 -> [ 0@0 ]  ], output requests = [ 0 -> [ 14@0 ]  2 -> [ 8@0 ]  9 -> [ 1@0 ]  10 -> [ 2@0 ]  14 -> [ 5@0 ]  ].
28 | network_0/router_level3_171/sw_allocator | Input grants = [ 1 -> 9  2 -> 10  5 -> 14  8 -> 2  14 -> 0  ], output grants = [ 0 -> 14  2 -> 8  9 -> 1  10 -> 2  14 -> 5  ].
28 | network_0/router_level3_171 | Assigning output 2.0 to VC 0 at input 8.0.
28 | network_0/router_level3_171 | Completed switch allocation for VC 0 at input 8 (front: 6).
28 | network_0/router_level3_171 |   Scheduling switch connection from input 8.0 to output 2.0.
28 | network_0/router_level3_222 | Beginning crossbar traversal for flit 2 from input 14.0 to output 3.0.
28 | network_0/router_level3_222 | Completed crossbar traversal for flit 2 from input 14.0 to output 3.0.
28 | network_0/router_level3_222 | Buffering flit 2 at output 3.
28 | network_0/router_level3_224 | Beginning crossbar traversal for flit 8 from input 14.0 to output 3.0.
28 | network_0/router_level3_224 | Completed crossbar traversal for flit 8 from input 14.0 to output 3.0.
28 | network_0/router_level3_224 | Buffering flit 8 at output 3.
28 | network_0/router_level3_226 | Beginning crossbar traversal for flit 7 from input 11.0 to output 2.0.
28 | network_0/router_level3_226 | Completed crossbar traversal for flit 7 from input 11.0 to output 2.0.
28 | network_0/router_level3_226 | Buffering flit 7 at output 2.
28 | network_0/router_level3_247 | Beginning switch allocation for VC 0 at input 13 (front: 1).
28 | network_0/router_level3_247 |   Requesting output 2.0 (non-spec, pri: 0).
28 | network_0/router_level3_247/sw_allocator | Input requests = [ 10 -> [ 5@0 ]  13 -> [ 2@0 ]  ], output requests = [ 2 -> [ 13@0 ]  5 -> [ 10@0 ]  ].
28 | network_0/router_level3_247/sw_allocator | Input grants = [ 10 -> 5  13 -> 2  ], output grants = [ 2 -> 13  5 -> 10  ].
28 | network_0/router_level3_247 | Assigning output 2.0 to VC 0 at input 13.0.
28 | network_0/router_level3_247 | Completed switch allocation for VC 0 at input 13 (front: 1).
28 | network_0/router_level3_247 |   Scheduling switch connection from input 13.0 to output 2.0.
28 | network_0/router_level3_305 | Beginning VC allocation for VC 0 at input 14 (front: 4).
28 | network_0/router_level3_305 |   VC 0 at output 0 is in use by VC 1 at input 13 (front flit: 1097).
28 | network_0/router_level3_305 |   Requesting VC 1 at output 0 (in_pri: 0, out_pri: 0).
28 | network_0/router_level3_305 |   Requesting VC 2 at output 0 (in_pri: 0, out_pri: 0).
28 | network_0/router_level3_305 |   Requesting VC 3 at output 0 (in_pri: 0, out_pri: 0).
28 | network_0/router_level3_305/vc_allocator | Input requests = [ 2 -> [ 56@0 57@0 58@0 59@0 ]  12 -> [ 37@0 38@0 39@0 ]  16 -> [ 40@0 41@0 42@0 43@0 ]  52 -> [ 28@0 29@0 30@0 31@0 ]  56 -> [ 1@0 2@0 3@0 ]  ], output requests = [ 1 -> [ 56@0 ]  2 -> [ 56@0 ]  3 -> [ 56@0 ]  28 -> [ 52@0 ]  29 -> [ 52@0 ]  30 -> [ 52@0 ]  31 -> [ 52@0 ]  37 -> [ 12@0 ]  38 -> [ 12@0 ]  39 -> [ 12@0 ]  40 -> [ 16@0 ]  41 -> [ 16@0 ]  42 -> [ 16@0 ]  43 -> [ 16@0 ]  56 -> [ 2@0 ]  57 -> [ 2@0 ]  58 -> [ 2@0 ]  59 -> [ 2@0 ]  ].
28 | network_0/router_level3_305/vc_allocator | Input grants = [ 2 -> 56  12 -> 37  16 -> 40  52 -> 28  56 -> 1  ], output grants = [ 1 -> 56  28 -> 52  37 -> 12  40 -> 16  56 -> 2  ].
28 | network_0/router_level3_305 | Assigning VC 1 at output 0 to VC 0 at input 14.
28 | network_0/router_level3_305 | Completed VC allocation for VC 0 at input 14 (front: 4).
28 | network_0/router_level3_305 |   Acquiring assigned VC 1 at output 0.
28 | network_0/router_level3_305/buf_14/vc_0 | Changing state from vc_alloc to active.
28 | network_0/router_level3_485 | Beginning crossbar traversal for flit 5 from input 8.0 to output 6.0.
28 | network_0/router_level3_485 | Completed crossbar traversal for flit 5 from input 8.0 to output 6.0.
28 | network_0/router_level3_485 | Buffering flit 5 at output 6.
28 | network_0/router_level3_129 | Sending flit 10 to channel at output 6.
28 | network_0/router_level3_222 | Sending flit 2 to channel at output 3.
28 | network_0/router_level3_224 | Sending flit 8 to channel at output 3.
28 | network_0/router_level3_226 | Sending flit 7 to channel at output 2.
28 | network_0/router_level3_485 | Sending flit 5 to channel at output 6.
29 | network_0/network_0_fchan_egress1038 | Beginning channel traversal for flit 10 with delay 1.
29 | network_0/network_0_fchan_egress1779 | Beginning channel traversal for flit 2 with delay 1.
29 | network_0/network_0_fchan_egress1795 | Beginning channel traversal for flit 8 with delay 1.
29 | network_0/network_0_fchan_egress1810 | Beginning channel traversal for flit 7 with delay 1.
29 | network_0/network_0_fchan_egress3886 | Beginning channel traversal for flit 5 with delay 1.
29 | network_0/router_level3_151 | Beginning crossbar traversal for flit 3 from input 9.0 to output 1.0.
29 | network_0/router_level3_151 | Completed crossbar traversal for flit 3 from input 9.0 to output 1.0.
29 | network_0/router_level3_151 | Buffering flit 3 at output 1.
29 | network_0/router_level3_171 | Beginning crossbar traversal for flit 6 from input 8.0 to output 2.0.
29 | network_0/router_level3_171 | Completed crossbar traversal for flit 6 from input 8.0 to output 2.0.
29 | network_0/router_level3_171 | Buffering flit 6 at output 2.
29 | network_0/router_level3_247 | Beginning crossbar traversal for flit 1 from input 13.0 to output 2.0.
29 | network_0/router_level3_247 | Completed crossbar traversal for flit 1 from input 13.0 to output 2.0.
29 | network_0/router_level3_247 | Buffering flit 1 at output 2.
29 | network_0/router_level3_305 | Beginning switch allocation for VC 0 at input 14 (front: 4).
29 | network_0/router_level3_305 |   Requesting output 0.0 (non-spec, pri: 0).
29 | network_0/router_level3_305/sw_allocator | Input requests = [ 0 -> [ 14@0 ]  3 -> [ 9@0 ]  4 -> [ 10@0 ]  13 -> [ 7@0 ]  14 -> [ 0@0 ]  ], output requests = [ 0 -> [ 14@0 ]  7 -> [ 13@0 ]  9 -> [ 3@0 ]  10 -> [ 4@0 ]  14 -> [ 0@0 ]  ].
29 | network_0/router_level3_305/sw_allocator | Input grants = [ 0 -> 14  3 -> 9  4 -> 10  13 -> 7  14 -> 0  ], output grants = [ 0 -> 14  7 -> 13  9 -> 3  10 -> 4  14 -> 0  ].
29 | network_0/router_level3_305 | Assigning output 0.0 to VC 0 at input 14.0.
29 | network_0/router_level3_305 | Completed switch allocation for VC 0 at input 14 (front: 4).
29 | network_0/router_level3_305 |   Scheduling switch connection from input 14.0 to output 0.0.
29 | network_0/network_0_fchan_egress1038 | Completed channel traversal for flit 10.
29 | network_0/network_0_fchan_egress1779 | Completed channel traversal for flit 2.
29 | network_0/network_0_fchan_egress1795 | Completed channel traversal for flit 8.
29 | network_0/network_0_fchan_egress1810 | Completed channel traversal for flit 7.
29 | network_0/network_0_fchan_egress3886 | Completed channel traversal for flit 5.
29 | network_0/router_level3_151 | Sending flit 3 to channel at output 1.
29 | network_0/router_level3_171 | Sending flit 6 to channel at output 2.
29 | network_0/router_level3_247 | Sending flit 1 to channel at output 2.
30 | node1038 | Ejecting flit 10 (packet 10) from VC 0.
30 | node1779 | Ejecting flit 2 (packet 2) from VC 0.
30 | node1795 | Ejecting flit 8 (packet 8) from VC 0.
30 | node1810 | Ejecting flit 7 (packet 7) from VC 0.
30 | node3886 | Ejecting flit 5 (packet 5) from VC 0.
30 | network_0/network_0_fchan_egress1209 | Beginning channel traversal for flit 3 with delay 1.
30 | network_0/network_0_fchan_egress1370 | Beginning channel traversal for flit 6 with delay 1.
30 | network_0/network_0_fchan_egress1978 | Beginning channel traversal for flit 1 with delay 1.
30 | node1038 | Injecting credit for VC 0 into subnet 0.
30 | node1038 | Retiring flit 10 (packet 10, src = 78, dest = 1038, hops = 7, flat = 30).
30 | node1038 | Retiring packet 10 (plat = 30, nlat = 30, frag = 0, src = 78, dest = 1038).
30 | node1779 | Injecting credit for VC 0 into subnet 0.
30 | node1779 | Retiring flit 2 (packet 2, src = 34, dest = 1779, hops = 7, flat = 30).
30 | node1779 | Retiring packet 2 (plat = 30, nlat = 30, frag = 0, src = 34, dest = 1779).
30 | node1795 | Injecting credit for VC 0 into subnet 0.
30 | node1795 | Retiring flit 8 (packet 8, src = 71, dest = 1795, hops = 7, flat = 30).
30 | node1795 | Retiring packet 8 (plat = 30, nlat = 30, frag = 0, src = 71, dest = 1795).
30 | node1810 | Injecting credit for VC 0 into subnet 0.
30 | node1810 | Retiring flit 7 (packet 7, src = 66, dest = 1810, hops = 7, flat = 30).
30 | node1810 | Retiring packet 7 (plat = 30, nlat = 30, frag = 0, src = 66, dest = 1810).
30 | node3886 | Injecting credit for VC 0 into subnet 0.
30 | node3886 | Retiring flit 5 (packet 5, src = 54, dest = 3886, hops = 7, flat = 30).
30 | node3886 | Retiring packet 5 (plat = 30, nlat = 30, frag = 0, src = 54, dest = 3886).
30 | network_0/router_level3_305 | Beginning crossbar traversal for flit 4 from input 14.0 to output 0.0.
30 | network_0/router_level3_305 | Completed crossbar traversal for flit 4 from input 14.0 to output 0.0.
30 | network_0/router_level3_305 | Buffering flit 4 at output 0.
30 | network_0/network_0_fchan_egress1209 | Completed channel traversal for flit 3.
30 | network_0/network_0_fchan_egress1370 | Completed channel traversal for flit 6.
30 | network_0/network_0_fchan_egress1978 | Completed channel traversal for flit 1.
30 | network_0/router_level3_305 | Sending flit 4 to channel at output 0.
31 | node1209 | Ejecting flit 3 (packet 3) from VC 0.
31 | node1370 | Ejecting flit 6 (packet 6) from VC 0.
31 | node1978 | Ejecting flit 1 (packet 1) from VC 0.
31 | network_0/network_0_fchan_egress2440 | Beginning channel traversal for flit 4 with delay 1.
31 | node1209 | Injecting credit for VC 0 into subnet 0.
31 | node1209 | Retiring flit 3 (packet 3, src = 47, dest = 1209, hops = 7, flat = 31).
31 | node1209 | Retiring packet 3 (plat = 31, nlat = 31, frag = 0, src = 47, dest = 1209).
31 | node1370 | Injecting credit for VC 0 into subnet 0.
31 | node1370 | Retiring flit 6 (packet 6, src = 62, dest = 1370, hops = 7, flat = 31).
31 | node1370 | Retiring packet 6 (plat = 31, nlat = 31, frag = 0, src = 62, dest = 1370).
31 | node1978 | Injecting credit for VC 0 into subnet 0.
31 | node1978 | Retiring flit 1 (packet 1, src = 15, dest = 1978, hops = 7, flat = 31).
31 | node1978 | Retiring packet 1 (plat = 31, nlat = 31, frag = 0, src = 15, dest = 1978).
31 | network_0/network_0_fchan_egress2440 | Completed channel traversal for flit 4.
32 | node2440 | Ejecting flit 4 (packet 4) from VC 1.
32 | node2440 | Injecting credit for VC 1 into subnet 0.
32 | node2440 | Retiring flit 4 (packet 4, src = 53, dest = 2440, hops = 7, flat = 32).
32 | node2440 | Retiring packet 4 (plat = 32, nlat = 32, frag = 0, src = 53, dest = 2440).
Class 0:
Packet latency average = 29.8937
	minimum = 6
	maximum = 47
Network latency average = 29.8937
	minimum = 6
	maximum = 47
Slowest packet = 602291
Flit latency average = 29.8937
	minimum = 6
	maximum = 47
Slowest flit = 602291
Fragmentation average = 0
	minimum = 0
	maximum = 0
Injected packet rate average = 0.199756
	minimum = 0.161 (at node 1346)
	maximum = 0.248 (at node 3108)
Accepted packet rate average = 0.193762
	minimum = 0.149 (at node 289)
	maximum = 0.246 (at node 265)
Injected flit rate average = 0.199756
	minimum = 0.161 (at node 1346)
	maximum = 0.248 (at node 3108)
Accepted flit rate average= 0.193762
	minimum = 0.149 (at node 289)
	maximum = 0.246 (at node 265)
Injected packet length average = 1
Accepted packet length average = 1
Total in-flight flits = 24549 (0 measured)
latency change    = 1
throughput change = 1
Class 0:
Packet latency average = 29.9009
	minimum = 6
	maximum = 47
Network latency average = 29.9009
	minimum = 6
	maximum = 47
Slowest packet = 602291
Flit latency average = 29.9009
	minimum = 6
	maximum = 47
Slowest flit = 602291
Fragmentation average = 0
	minimum = 0
	maximum = 0
Injected packet rate average = 0.199976
	minimum = 0.1695 (at node 3875)
	maximum = 0.2305 (at node 2521)
Accepted packet rate average = 0.197021
	minimum = 0.165 (at node 3257)
	maximum = 0.2355 (at node 436)
Injected flit rate average = 0.199976
	minimum = 0.1695 (at node 3875)
	maximum = 0.2305 (at node 2521)
Accepted flit rate average= 0.197021
	minimum = 0.165 (at node 3257)
	maximum = 0.2355 (at node 436)
Injected packet length average = 1
Accepted packet length average = 1
Total in-flight flits = 24209 (0 measured)
latency change    = 0.000242622
throughput change = 0.0165366
Class 0:
Packet latency average = 29.9096
	minimum = 6
	maximum = 46
Network latency average = 29.9096
	minimum = 6
	maximum = 46
Slowest packet = 2132852
Flit latency average = 29.9096
	minimum = 6
	maximum = 46
Slowest flit = 2132852
Fragmentation average = 0
	minimum = 0
	maximum = 0
Injected packet rate average = 0.200138
	minimum = 0.15 (at node 835)
	maximum = 0.248 (at node 1882)
Accepted packet rate average = 0.200069
	minimum = 0.155 (at node 2605)
	maximum = 0.246 (at node 1319)
Injected flit rate average = 0.200138
	minimum = 0.15 (at node 835)
	maximum = 0.248 (at node 1882)
Accepted flit rate average= 0.200069
	minimum = 0.155 (at node 2605)
	maximum = 0.246 (at node 1319)
Injected packet length average = 1
Accepted packet length average = 1
Total in-flight flits = 24492 (0 measured)
latency change    = 0.000288394
throughput change = 0.0152377
Warmed up ...Time used is 3000 cycles
Class 0:
Packet latency average = 29.8985
	minimum = 6
	maximum = 48
Network latency average = 29.8985
	minimum = 6
	maximum = 48
Slowest packet = 2841736
Flit latency average = 29.9134
	minimum = 6
	maximum = 48
Slowest flit = 2841736
Fragmentation average = 0
	minimum = 0
	maximum = 0
Injected packet rate average = 0.199811
	minimum = 0.152 (at node 1256)
	maximum = 0.243 (at node 2805)
Accepted packet rate average = 0.199878
	minimum = 0.152 (at node 521)
	maximum = 0.25 (at node 1823)
Injected flit rate average = 0.199811
	minimum = 0.152 (at node 1256)
	maximum = 0.243 (at node 2805)
Accepted flit rate average= 0.199878
	minimum = 0.152 (at node 521)
	maximum = 0.25 (at node 1823)
Injected packet length average = 1
Accepted packet length average = 1
Total in-flight flits = 24216 (24216 measured)
latency change    = 0.000370767
throughput change = 0.000956394
Class 0:
Packet latency average = 29.9036
	minimum = 6
	maximum = 49
Network latency average = 29.9036
	minimum = 6
	maximum = 49
Slowest packet = 3702589
Flit latency average = 29.911
	minimum = 6
	maximum = 49
Slowest flit = 3702589
Fragmentation average = 0
	minimum = 0
	maximum = 0
Injected packet rate average = 0.20005
	minimum = 0.1695 (at node 3448)
	maximum = 0.2305 (at node 3336)
Accepted packet rate average = 0.200068
	minimum = 0.1665 (at node 3180)
	maximum = 0.2435 (at node 3199)
Injected flit rate average = 0.20005
	minimum = 0.1695 (at node 3448)
	maximum = 0.2305 (at node 3336)
Accepted flit rate average= 0.200068
	minimum = 0.1665 (at node 3180)
	maximum = 0.2435 (at node 3199)
Injected packet length average = 1
Accepted packet length average = 1
Total in-flight flits = 24339 (24339 measured)
latency change    = 0.000171511
throughput change = 0.000952433
Class 0:
Packet latency average = 29.9076
	minimum = 6
	maximum = 49
Network latency average = 29.9076
	minimum = 6
	maximum = 49
Slowest packet = 3702589
Flit latency average = 29.9125
	minimum = 6
	maximum = 49
Slowest flit = 3702589
Fragmentation average = 0
	minimum = 0
	maximum = 0
Injected packet rate average = 0.200121
	minimum = 0.175667 (at node 2159)
	maximum = 0.222667 (at node 3100)
Accepted packet rate average = 0.200119
	minimum = 0.164 (at node 3839)
	maximum = 0.239667 (at node 3199)
Injected flit rate average = 0.200121
	minimum = 0.175667 (at node 2159)
	maximum = 0.222667 (at node 3100)
Accepted flit rate average= 0.200119
	minimum = 0.164 (at node 3839)
	maximum = 0.239667 (at node 3199)
Injected packet length average = 1
Accepted packet length average = 1
Total in-flight flits = 24516 (24516 measured)
latency change    = 0.000135515
throughput change = 0.000253552
Draining all recorded packets ...
Draining remaining packets ...
Time taken is 6077 cycles
====== Overall Traffic Statistics ======
====== Traffic class 0 ======
Packet latency average = 29.9118 (1 samples)
	minimum = 6 (1 samples)
	maximum = 49 (1 samples)
Network latency average = 29.9118 (1 samples)
	minimum = 6 (1 samples)
	maximum = 49 (1 samples)
Flit latency average = 29.9163 (1 samples)
	minimum = 6 (1 samples)
	maximum = 49 (1 samples)
Fragmentation average = 0 (1 samples)
	minimum = 0 (1 samples)
	maximum = 0 (1 samples)
Injected packet rate average = 0.200121 (1 samples)
	minimum = 0.175667 (1 samples)
	maximum = 0.222667 (1 samples)
Accepted packet rate average = 0.200119 (1 samples)
	minimum = 0.164 (1 samples)
	maximum = 0.239667 (1 samples)
Injected flit rate average = 0.200121 (1 samples)
	minimum = 0.175667 (1 samples)
	maximum = 0.222667 (1 samples)
Accepted flit rate average = 0.200119 (1 samples)
	minimum = 0.164 (1 samples)
	maximum = 0.239667 (1 samples)
Injected packet size average = 1 (1 samples)
Accepted packet size average = 1 (1 samples)
Hops average = 6.71553 (1 samples)
Total run time 485.133
