BEGIN Configuration File: examples/fattree_config_0.40_4_uniform
// $Id: dragonflyconfig 3555 2011-05-16 23:37:55Z dub $

// Copyright (c) 2007-2015, Trustees of The Leland Stanford Junior University
// All rights reserved.
//
// Redistribution and use in source and binary forms, with or without
// modification, are permitted provided that the following conditions are met:
//
// Redistributions of source code must retain the above copyright notice, this
// list of conditions and the following disclaimer.
// Redistributions in binary form must reproduce the above copyright notice,
// this list of conditions and the following disclaimer in the documentation
// and/or other materials provided with the distribution.
//
// THIS SOFTWARE IS PROVIDED BY THE COPYRIGHT HOLDERS AND CONTRIBUTORS "AS IS"
// AND ANY EXPRESS OR IMPLIED WARRANTIES, INCLUDING, BUT NOT LIMITED TO, THE
// IMPLIED WARRANTIES OF MERCHANTABILITY AND FITNESS FOR A PARTICULAR PURPOSE
// ARE DISCLAIMED. IN NO EVENT SHALL THE COPYRIGHT OWNER OR CONTRIBUTORS BE
// LIABLE FOR ANY DIRECT, INDIRECT, INCIDENTAL, SPECIAL, EXEMPLARY, OR
// CONSEQUENTIAL DAMAGES (INCLUDING, BUT NOT LIMITED TO, PROCUREMENT OF
// SUBSTITUTE GOODS OR SERVICES; LOSS OF USE, DATA, OR PROFITS; OR BUSINESS
// INTERRUPTION) HOWEVER CAUSED AND ON ANY THEORY OF LIABILITY, WHETHER IN
// CONTRACT, STRICT LIABILITY, OR TORT (INCLUDING NEGLIGENCE OR OTHERWISE)
// ARISING IN ANY WAY OUT OF THE USE OF THIS SOFTWARE, EVEN IF ADVISED OF THE
// POSSIBILITY OF SUCH DAMAGE.


hold_switch_for_packet=1;

vc_buf_size = 16;


wait_for_tail_credit = 0;

//
// Router architecture
//
vc_allocator = separable_input_first; 
sw_allocator = separable_input_first;
alloc_iters  = 1;

credit_delay   = 2;
routing_delay  = 0;
vc_alloc_delay = 1;
sw_alloc_delay = 1;
st_final_delay = 1;

input_speedup     = 1;
output_speedup    = 1;
internal_speedup  = 1.0;


warmup_periods = 3;
sim_count          = 1;

sample_period  = 1000;  

routing_function = nca;
num_vcs     = 4;

priority = none;
traffic = uniform;


injection_rate = 0.40;
packet_size = 1;
injection_rate_uses_flits=1;

topology = fattree;

k  = 8;
n  = 4;
t = 4;

watch_file = watchfile.txt;
watch_out=-;
stats_out = examples/fattree_config_0.40_4_uniform.m;

END Configuration File: examples/fattree_config_0.40_4_uniform
Fat Tree
 k = 8 levels = 4
 each switch - total radix =  16
 # of switches = 2048
 # of channels = 24576
 # of nodes ( size of network ) = 4096
 tapering factor = 4
0 | node11 | Enqueuing flit 1 (packet 1) at time 0.
0 | node12 | Enqueuing flit 2 (packet 2) at time 0.
0 | node13 | Enqueuing flit 3 (packet 3) at time 0.
0 | node14 | Enqueuing flit 4 (packet 4) at time 0.
0 | node15 | Enqueuing flit 5 (packet 5) at time 0.
0 | node18 | Enqueuing flit 6 (packet 6) at time 0.
0 | node19 | Enqueuing flit 7 (packet 7) at time 0.
0 | node20 | Enqueuing flit 8 (packet 8) at time 0.
0 | node30 | Enqueuing flit 9 (packet 9) at time 0.
0 | node31 | Enqueuing flit 10 (packet 10) at time 0.
0 | traffic_manager | Finding output VC for flit 1:
0 | traffic_manager |   Selected output VC 0.
0 | node11 | Generating lookahead routing info for flit 1.
0 | node11 | Injecting flit 1 into subnet 0 at time 0 with priority 0.
0 | traffic_manager | Finding output VC for flit 2:
0 | traffic_manager |   Selected output VC 0.
0 | node12 | Generating lookahead routing info for flit 2.
0 | node12 | Injecting flit 2 into subnet 0 at time 0 with priority 0.
0 | traffic_manager | Finding output VC for flit 3:
0 | traffic_manager |   Selected output VC 0.
0 | node13 | Generating lookahead routing info for flit 3.
0 | node13 | Injecting flit 3 into subnet 0 at time 0 with priority 0.
0 | traffic_manager | Finding output VC for flit 4:
0 | traffic_manager |   Selected output VC 0.
0 | node14 | Generating lookahead routing info for flit 4.
0 | node14 | Injecting flit 4 into subnet 0 at time 0 with priority 0.
0 | traffic_manager | Finding output VC for flit 5:
0 | traffic_manager |   Selected output VC 0.
0 | node15 | Generating lookahead routing info for flit 5.
0 | node15 | Injecting flit 5 into subnet 0 at time 0 with priority 0.
0 | traffic_manager | Finding output VC for flit 6:
0 | traffic_manager |   Selected output VC 0.
0 | node18 | Generating lookahead routing info for flit 6.
0 | node18 | Injecting flit 6 into subnet 0 at time 0 with priority 0.
0 | traffic_manager | Finding output VC for flit 7:
0 | traffic_manager |   Selected output VC 0.
0 | node19 | Generating lookahead routing info for flit 7.
0 | node19 | Injecting flit 7 into subnet 0 at time 0 with priority 0.
0 | traffic_manager | Finding output VC for flit 8:
0 | traffic_manager |   Selected output VC 0.
0 | node20 | Generating lookahead routing info for flit 8.
0 | node20 | Injecting flit 8 into subnet 0 at time 0 with priority 0.
0 | traffic_manager | Finding output VC for flit 9:
0 | traffic_manager |   Selected output VC 0.
0 | node30 | Generating lookahead routing info for flit 9.
0 | node30 | Injecting flit 9 into subnet 0 at time 0 with priority 0.
0 | traffic_manager | Finding output VC for flit 10:
0 | traffic_manager |   Selected output VC 0.
0 | node31 | Generating lookahead routing info for flit 10.
0 | node31 | Injecting flit 10 into subnet 0 at time 0 with priority 0.
1 | network_0/network_0_fchan_ingress11 | Beginning channel traversal for flit 1 with delay 1.
1 | network_0/network_0_fchan_ingress12 | Beginning channel traversal for flit 2 with delay 1.
1 | network_0/network_0_fchan_ingress13 | Beginning channel traversal for flit 3 with delay 1.
1 | network_0/network_0_fchan_ingress14 | Beginning channel traversal for flit 4 with delay 1.
1 | network_0/network_0_fchan_ingress15 | Beginning channel traversal for flit 5 with delay 1.
1 | network_0/network_0_fchan_ingress18 | Beginning channel traversal for flit 6 with delay 1.
1 | network_0/network_0_fchan_ingress19 | Beginning channel traversal for flit 7 with delay 1.
1 | network_0/network_0_fchan_ingress20 | Beginning channel traversal for flit 8 with delay 1.
1 | network_0/network_0_fchan_ingress30 | Beginning channel traversal for flit 9 with delay 1.
1 | network_0/network_0_fchan_ingress31 | Beginning channel traversal for flit 10 with delay 1.
1 | network_0/network_0_fchan_ingress11 | Completed channel traversal for flit 1.
1 | network_0/network_0_fchan_ingress12 | Completed channel traversal for flit 2.
1 | network_0/network_0_fchan_ingress13 | Completed channel traversal for flit 3.
1 | network_0/network_0_fchan_ingress14 | Completed channel traversal for flit 4.
1 | network_0/network_0_fchan_ingress15 | Completed channel traversal for flit 5.
1 | network_0/network_0_fchan_ingress18 | Completed channel traversal for flit 6.
1 | network_0/network_0_fchan_ingress19 | Completed channel traversal for flit 7.
1 | network_0/network_0_fchan_ingress20 | Completed channel traversal for flit 8.
1 | network_0/network_0_fchan_ingress30 | Completed channel traversal for flit 9.
1 | network_0/network_0_fchan_ingress31 | Completed channel traversal for flit 10.
2 | network_0/router_level3_1 | Received flit 1 from channel at input 3.
2 | network_0/router_level3_1 | Received flit 2 from channel at input 4.
2 | network_0/router_level3_1 | Received flit 3 from channel at input 5.
2 | network_0/router_level3_1 | Received flit 4 from channel at input 6.
2 | network_0/router_level3_1 | Received flit 5 from channel at input 7.
2 | network_0/router_level3_2 | Received flit 6 from channel at input 2.
2 | network_0/router_level3_2 | Received flit 7 from channel at input 3.
2 | network_0/router_level3_2 | Received flit 8 from channel at input 4.
2 | network_0/router_level3_3 | Received flit 9 from channel at input 6.
2 | network_0/router_level3_3 | Received flit 10 from channel at input 7.
2 | network_0/router_level3_1 | Adding flit 1 to VC 0 at input 3 (state: idle, empty).
2 | network_0/router_level3_1 | Using precomputed lookahead routing information for VC 0 at input 3 (front: 1).
2 | network_0/router_level3_1/buf_3/vc_0 | Changing state from idle to vc_alloc.
2 | network_0/router_level3_1 | Adding flit 2 to VC 0 at input 4 (state: idle, empty).
2 | network_0/router_level3_1 | Using precomputed lookahead routing information for VC 0 at input 4 (front: 2).
2 | network_0/router_level3_1/buf_4/vc_0 | Changing state from idle to vc_alloc.
2 | network_0/router_level3_1 | Adding flit 3 to VC 0 at input 5 (state: idle, empty).
2 | network_0/router_level3_1 | Using precomputed lookahead routing information for VC 0 at input 5 (front: 3).
2 | network_0/router_level3_1/buf_5/vc_0 | Changing state from idle to vc_alloc.
2 | network_0/router_level3_1 | Adding flit 4 to VC 0 at input 6 (state: idle, empty).
2 | network_0/router_level3_1 | Using precomputed lookahead routing information for VC 0 at input 6 (front: 4).
2 | network_0/router_level3_1/buf_6/vc_0 | Changing state from idle to vc_alloc.
2 | network_0/router_level3_1 | Adding flit 5 to VC 0 at input 7 (state: idle, empty).
2 | network_0/router_level3_1 | Using precomputed lookahead routing information for VC 0 at input 7 (front: 5).
2 | network_0/router_level3_1/buf_7/vc_0 | Changing state from idle to vc_alloc.
2 | network_0/router_level3_1 | Beginning VC allocation for VC 0 at input 3 (front: 1).
2 | network_0/router_level3_1 |   Requesting VC 0 at output 15 (in_pri: 0, out_pri: 0).
2 | network_0/router_level3_1 |   Requesting VC 1 at output 15 (in_pri: 0, out_pri: 0).
2 | network_0/router_level3_1 |   Requesting VC 2 at output 15 (in_pri: 0, out_pri: 0).
2 | network_0/router_level3_1 |   Requesting VC 3 at output 15 (in_pri: 0, out_pri: 0).
2 | network_0/router_level3_1 | Beginning VC allocation for VC 0 at input 4 (front: 2).
2 | network_0/router_level3_1 |   Requesting VC 0 at output 9 (in_pri: 0, out_pri: 0).
2 | network_0/router_level3_1 |   Requesting VC 1 at output 9 (in_pri: 0, out_pri: 0).
2 | network_0/router_level3_1 |   Requesting VC 2 at output 9 (in_pri: 0, out_pri: 0).
2 | network_0/router_level3_1 |   Requesting VC 3 at output 9 (in_pri: 0, out_pri: 0).
2 | network_0/router_level3_1 | Beginning VC allocation for VC 0 at input 5 (front: 3).
2 | network_0/router_level3_1 |   Requesting VC 0 at output 15 (in_pri: 0, out_pri: 0).
2 | network_0/router_level3_1 |   Requesting VC 1 at output 15 (in_pri: 0, out_pri: 0).
2 | network_0/router_level3_1 |   Requesting VC 2 at output 15 (in_pri: 0, out_pri: 0).
2 | network_0/router_level3_1 |   Requesting VC 3 at output 15 (in_pri: 0, out_pri: 0).
2 | network_0/router_level3_1 | Beginning VC allocation for VC 0 at input 6 (front: 4).
2 | network_0/router_level3_1 |   Requesting VC 0 at output 11 (in_pri: 0, out_pri: 0).
2 | network_0/router_level3_1 |   Requesting VC 1 at output 11 (in_pri: 0, out_pri: 0).
2 | network_0/router_level3_1 |   Requesting VC 2 at output 11 (in_pri: 0, out_pri: 0).
2 | network_0/router_level3_1 |   Requesting VC 3 at output 11 (in_pri: 0, out_pri: 0).
2 | network_0/router_level3_1 | Beginning VC allocation for VC 0 at input 7 (front: 5).
2 | network_0/router_level3_1 |   Requesting VC 0 at output 12 (in_pri: 0, out_pri: 0).
2 | network_0/router_level3_1 |   Requesting VC 1 at output 12 (in_pri: 0, out_pri: 0).
2 | network_0/router_level3_1 |   Requesting VC 2 at output 12 (in_pri: 0, out_pri: 0).
2 | network_0/router_level3_1 |   Requesting VC 3 at output 12 (in_pri: 0, out_pri: 0).
2 | network_0/router_level3_1/vc_allocator | Input requests = [ 4 -> [ 32@0 33@0 34@0 35@0 ]  12 -> [ 60@0 61@0 62@0 63@0 ]  16 -> [ 36@0 37@0 38@0 39@0 ]  20 -> [ 60@0 61@0 62@0 63@0 ]  24 -> [ 44@0 45@0 46@0 47@0 ]  28 -> [ 48@0 49@0 50@0 51@0 ]  ], output requests = [ 32 -> [ 4@0 ]  33 -> [ 4@0 ]  34 -> [ 4@0 ]  35 -> [ 4@0 ]  36 -> [ 16@0 ]  37 -> [ 16@0 ]  38 -> [ 16@0 ]  39 -> [ 16@0 ]  44 -> [ 24@0 ]  45 -> [ 24@0 ]  46 -> [ 24@0 ]  47 -> [ 24@0 ]  48 -> [ 28@0 ]  49 -> [ 28@0 ]  50 -> [ 28@0 ]  51 -> [ 28@0 ]  60 -> [ 12@0 20@0 ]  61 -> [ 12@0 20@0 ]  62 -> [ 12@0 20@0 ]  63 -> [ 12@0 20@0 ]  ].
2 | network_0/router_level3_1/vc_allocator | Input grants = [ 4 -> 32  12 -> 60  16 -> 36  24 -> 44  28 -> 48  ], output grants = [ 32 -> 4  36 -> 16  44 -> 24  48 -> 28  60 -> 12  ].
2 | network_0/router_level3_1 | Assigning VC 0 at output 15 to VC 0 at input 3.
2 | network_0/router_level3_1 | Assigning VC 0 at output 9 to VC 0 at input 4.
2 | network_0/router_level3_1 | VC allocation failed for VC 0 at input 5.
2 | network_0/router_level3_1 | Assigning VC 0 at output 11 to VC 0 at input 6.
2 | network_0/router_level3_1 | Assigning VC 0 at output 12 to VC 0 at input 7.
2 | network_0/router_level3_1 | Completed VC allocation for VC 0 at input 3 (front: 1).
2 | network_0/router_level3_1 |   Acquiring assigned VC 0 at output 15.
2 | network_0/router_level3_1/buf_3/vc_0 | Changing state from vc_alloc to active.
2 | network_0/router_level3_1 | Completed VC allocation for VC 0 at input 4 (front: 2).
2 | network_0/router_level3_1 |   Acquiring assigned VC 0 at output 9.
2 | network_0/router_level3_1/buf_4/vc_0 | Changing state from vc_alloc to active.
2 | network_0/router_level3_1 | Completed VC allocation for VC 0 at input 5 (front: 3).
2 | network_0/router_level3_1 |   No output VC allocated.
2 | network_0/router_level3_1 | Completed VC allocation for VC 0 at input 6 (front: 4).
2 | network_0/router_level3_1 |   Acquiring assigned VC 0 at output 11.
2 | network_0/router_level3_1/buf_6/vc_0 | Changing state from vc_alloc to active.
2 | network_0/router_level3_1 | Completed VC allocation for VC 0 at input 7 (front: 5).
2 | network_0/router_level3_1 |   Acquiring assigned VC 0 at output 12.
2 | network_0/router_level3_1/buf_7/vc_0 | Changing state from vc_alloc to active.
2 | network_0/router_level3_2 | Adding flit 6 to VC 0 at input 2 (state: idle, empty).
2 | network_0/router_level3_2 | Using precomputed lookahead routing information for VC 0 at input 2 (front: 6).
2 | network_0/router_level3_2/buf_2/vc_0 | Changing state from idle to vc_alloc.
2 | network_0/router_level3_2 | Adding flit 7 to VC 0 at input 3 (state: idle, empty).
2 | network_0/router_level3_2 | Using precomputed lookahead routing information for VC 0 at input 3 (front: 7).
2 | network_0/router_level3_2/buf_3/vc_0 | Changing state from idle to vc_alloc.
2 | network_0/router_level3_2 | Adding flit 8 to VC 0 at input 4 (state: idle, empty).
2 | network_0/router_level3_2 | Using precomputed lookahead routing information for VC 0 at input 4 (front: 8).
2 | network_0/router_level3_2/buf_4/vc_0 | Changing state from idle to vc_alloc.
2 | network_0/router_level3_2 | Beginning VC allocation for VC 0 at input 2 (front: 6).
2 | network_0/router_level3_2 |   Requesting VC 0 at output 12 (in_pri: 0, out_pri: 0).
2 | network_0/router_level3_2 |   Requesting VC 1 at output 12 (in_pri: 0, out_pri: 0).
2 | network_0/router_level3_2 |   Requesting VC 2 at output 12 (in_pri: 0, out_pri: 0).
2 | network_0/router_level3_2 |   Requesting VC 3 at output 12 (in_pri: 0, out_pri: 0).
2 | network_0/router_level3_2 | Beginning VC allocation for VC 0 at input 3 (front: 7).
2 | network_0/router_level3_2 |   Requesting VC 0 at output 11 (in_pri: 0, out_pri: 0).
2 | network_0/router_level3_2 |   Requesting VC 1 at output 11 (in_pri: 0, out_pri: 0).
2 | network_0/router_level3_2 |   Requesting VC 2 at output 11 (in_pri: 0, out_pri: 0).
2 | network_0/router_level3_2 |   Requesting VC 3 at output 11 (in_pri: 0, out_pri: 0).
2 | network_0/router_level3_2 | Beginning VC allocation for VC 0 at input 4 (front: 8).
2 | network_0/router_level3_2 |   Requesting VC 0 at output 10 (in_pri: 0, out_pri: 0).
2 | network_0/router_level3_2 |   Requesting VC 1 at output 10 (in_pri: 0, out_pri: 0).
2 | network_0/router_level3_2 |   Requesting VC 2 at output 10 (in_pri: 0, out_pri: 0).
2 | network_0/router_level3_2 |   Requesting VC 3 at output 10 (in_pri: 0, out_pri: 0).
2 | network_0/router_level3_2/vc_allocator | Input requests = [ 8 -> [ 48@0 49@0 50@0 51@0 ]  12 -> [ 44@0 45@0 46@0 47@0 ]  16 -> [ 40@0 41@0 42@0 43@0 ]  ], output requests = [ 40 -> [ 16@0 ]  41 -> [ 16@0 ]  42 -> [ 16@0 ]  43 -> [ 16@0 ]  44 -> [ 12@0 ]  45 -> [ 12@0 ]  46 -> [ 12@0 ]  47 -> [ 12@0 ]  48 -> [ 8@0 ]  49 -> [ 8@0 ]  50 -> [ 8@0 ]  51 -> [ 8@0 ]  ].
2 | network_0/router_level3_2/vc_allocator | Input grants = [ 8 -> 48  12 -> 44  16 -> 40  ], output grants = [ 40 -> 16  44 -> 12  48 -> 8  ].
2 | network_0/router_level3_2 | Assigning VC 0 at output 12 to VC 0 at input 2.
2 | network_0/router_level3_2 | Assigning VC 0 at output 11 to VC 0 at input 3.
2 | network_0/router_level3_2 | Assigning VC 0 at output 10 to VC 0 at input 4.
2 | network_0/router_level3_2 | Completed VC allocation for VC 0 at input 2 (front: 6).
2 | network_0/router_level3_2 |   Acquiring assigned VC 0 at output 12.
2 | network_0/router_level3_2/buf_2/vc_0 | Changing state from vc_alloc to active.
2 | network_0/router_level3_2 | Completed VC allocation for VC 0 at input 3 (front: 7).
2 | network_0/router_level3_2 |   Acquiring assigned VC 0 at output 11.
2 | network_0/router_level3_2/buf_3/vc_0 | Changing state from vc_alloc to active.
2 | network_0/router_level3_2 | Completed VC allocation for VC 0 at input 4 (front: 8).
2 | network_0/router_level3_2 |   Acquiring assigned VC 0 at output 10.
2 | network_0/router_level3_2/buf_4/vc_0 | Changing state from vc_alloc to active.
2 | network_0/router_level3_3 | Adding flit 9 to VC 0 at input 6 (state: idle, empty).
2 | network_0/router_level3_3 | Using precomputed lookahead routing information for VC 0 at input 6 (front: 9).
2 | network_0/router_level3_3/buf_6/vc_0 | Changing state from idle to vc_alloc.
2 | network_0/router_level3_3 | Adding flit 10 to VC 0 at input 7 (state: idle, empty).
2 | network_0/router_level3_3 | Using precomputed lookahead routing information for VC 0 at input 7 (front: 10).
2 | network_0/router_level3_3/buf_7/vc_0 | Changing state from idle to vc_alloc.
2 | network_0/router_level3_3 | Beginning VC allocation for VC 0 at input 6 (front: 9).
2 | network_0/router_level3_3 |   Requesting VC 0 at output 8 (in_pri: 0, out_pri: 0).
2 | network_0/router_level3_3 |   Requesting VC 1 at output 8 (in_pri: 0, out_pri: 0).
2 | network_0/router_level3_3 |   Requesting VC 2 at output 8 (in_pri: 0, out_pri: 0).
2 | network_0/router_level3_3 |   Requesting VC 3 at output 8 (in_pri: 0, out_pri: 0).
2 | network_0/router_level3_3 | Beginning VC allocation for VC 0 at input 7 (front: 10).
2 | network_0/router_level3_3 |   Requesting VC 0 at output 8 (in_pri: 0, out_pri: 0).
2 | network_0/router_level3_3 |   Requesting VC 1 at output 8 (in_pri: 0, out_pri: 0).
2 | network_0/router_level3_3 |   Requesting VC 2 at output 8 (in_pri: 0, out_pri: 0).
2 | network_0/router_level3_3 |   Requesting VC 3 at output 8 (in_pri: 0, out_pri: 0).
2 | network_0/router_level3_3/vc_allocator | Input requests = [ 24 -> [ 32@0 33@0 34@0 35@0 ]  28 -> [ 32@0 33@0 34@0 35@0 ]  ], output requests = [ 32 -> [ 24@0 28@0 ]  33 -> [ 24@0 28@0 ]  34 -> [ 24@0 28@0 ]  35 -> [ 24@0 28@0 ]  ].
2 | network_0/router_level3_3/vc_allocator | Input grants = [ 24 -> 32  ], output grants = [ 32 -> 24  ].
2 | network_0/router_level3_3 | Assigning VC 0 at output 8 to VC 0 at input 6.
2 | network_0/router_level3_3 | VC allocation failed for VC 0 at input 7.
2 | network_0/router_level3_3 | Completed VC allocation for VC 0 at input 6 (front: 9).
2 | network_0/router_level3_3 |   Acquiring assigned VC 0 at output 8.
2 | network_0/router_level3_3/buf_6/vc_0 | Changing state from vc_alloc to active.
2 | network_0/router_level3_3 | Completed VC allocation for VC 0 at input 7 (front: 10).
2 | network_0/router_level3_3 |   No output VC allocated.
3 | network_0/router_level3_1 | Beginning VC allocation for VC 0 at input 5 (front: 3).
3 | network_0/router_level3_1 |   VC 0 at output 15 is in use by VC 0 at input 3 (front flit: 1).
3 | network_0/router_level3_1 |   Requesting VC 1 at output 15 (in_pri: 0, out_pri: 0).
3 | network_0/router_level3_1 |   Requesting VC 2 at output 15 (in_pri: 0, out_pri: 0).
3 | network_0/router_level3_1 |   Requesting VC 3 at output 15 (in_pri: 0, out_pri: 0).
3 | network_0/router_level3_1/vc_allocator | Input requests = [ 5 -> [ 61@0 62@0 63@0 ]  17 -> [ 33@0 34@0 35@0 ]  20 -> [ 61@0 62@0 63@0 ]  21 -> [ 61@0 62@0 63@0 ]  25 -> [ 52@0 53@0 54@0 55@0 ]  ], output requests = [ 33 -> [ 17@0 ]  34 -> [ 17@0 ]  35 -> [ 17@0 ]  52 -> [ 25@0 ]  53 -> [ 25@0 ]  54 -> [ 25@0 ]  55 -> [ 25@0 ]  61 -> [ 5@0 20@0 21@0 ]  62 -> [ 5@0 20@0 21@0 ]  63 -> [ 5@0 20@0 21@0 ]  ].
3 | network_0/router_level3_1/vc_allocator | Input grants = [ 5 -> 61  17 -> 33  25 -> 52  ], output grants = [ 33 -> 17  52 -> 25  61 -> 5  ].
3 | network_0/router_level3_1 | VC allocation failed for VC 0 at input 5.
3 | network_0/router_level3_1 | Beginning switch allocation for VC 0 at input 3 (front: 1).
3 | network_0/router_level3_1 |   Requesting output 15.0 (non-spec, pri: 0).
3 | network_0/router_level3_1 | Beginning switch allocation for VC 0 at input 4 (front: 2).
3 | network_0/router_level3_1 |   Requesting output 9.0 (non-spec, pri: 0).
3 | network_0/router_level3_1 | Beginning switch allocation for VC 0 at input 6 (front: 4).
3 | network_0/router_level3_1 |   Requesting output 11.0 (non-spec, pri: 0).
3 | network_0/router_level3_1 | Beginning switch allocation for VC 0 at input 7 (front: 5).
3 | network_0/router_level3_1 |   Requesting output 12.0 (non-spec, pri: 0).
3 | network_0/router_level3_1/sw_allocator | Input requests = [ 1 -> [ 8@0 ]  3 -> [ 15@0 ]  4 -> [ 9@0 ]  6 -> [ 11@0 ]  7 -> [ 12@0 ]  ], output requests = [ 8 -> [ 1@0 ]  9 -> [ 4@0 ]  11 -> [ 6@0 ]  12 -> [ 7@0 ]  15 -> [ 3@0 ]  ].
3 | network_0/router_level3_1/sw_allocator | Input grants = [ 1 -> 8  3 -> 15  4 -> 9  6 -> 11  7 -> 12  ], output grants = [ 8 -> 1  9 -> 4  11 -> 6  12 -> 7  15 -> 3  ].
3 | network_0/router_level3_1 | Assigning output 15.0 to VC 0 at input 3.0.
3 | network_0/router_level3_1 | Assigning output 9.0 to VC 0 at input 4.0.
3 | network_0/router_level3_1 | Assigning output 11.0 to VC 0 at input 6.0.
3 | network_0/router_level3_1 | Assigning output 12.0 to VC 0 at input 7.0.
3 | network_0/router_level3_1 | Completed VC allocation for VC 0 at input 5 (front: 3).
3 | network_0/router_level3_1 |   No output VC allocated.
3 | network_0/router_level3_1 | Completed switch allocation for VC 0 at input 3 (front: 1).
3 | network_0/router_level3_1 |   Scheduling switch connection from input 3.0 to output 15.0.
3 | network_0/router_level3_1 | Updating lookahead routing information for flit 1.
3 | network_0/router_level3_1 | Completed switch allocation for VC 0 at input 4 (front: 2).
3 | network_0/router_level3_1 |   Scheduling switch connection from input 4.0 to output 9.0.
3 | network_0/router_level3_1 | Updating lookahead routing information for flit 2.
3 | network_0/router_level3_1 | Completed switch allocation for VC 0 at input 6 (front: 4).
3 | network_0/router_level3_1 |   Scheduling switch connection from input 6.0 to output 11.0.
3 | network_0/router_level3_1 | Updating lookahead routing information for flit 4.
3 | network_0/router_level3_1 | Completed switch allocation for VC 0 at input 7 (front: 5).
3 | network_0/router_level3_1 |   Scheduling switch connection from input 7.0 to output 12.0.
3 | network_0/router_level3_1 | Updating lookahead routing information for flit 5.
3 | network_0/router_level3_2 | Beginning switch allocation for VC 0 at input 2 (front: 6).
3 | network_0/router_level3_2 |   Requesting output 12.0 (non-spec, pri: 0).
3 | network_0/router_level3_2 | Beginning switch allocation for VC 0 at input 3 (front: 7).
3 | network_0/router_level3_2 |   Requesting output 11.0 (non-spec, pri: 0).
3 | network_0/router_level3_2 | Beginning switch allocation for VC 0 at input 4 (front: 8).
3 | network_0/router_level3_2 |   Requesting output 10.0 (non-spec, pri: 0).
3 | network_0/router_level3_2/sw_allocator | Input requests = [ 2 -> [ 12@0 ]  3 -> [ 11@0 ]  4 -> [ 10@0 ]  ], output requests = [ 10 -> [ 4@0 ]  11 -> [ 3@0 ]  12 -> [ 2@0 ]  ].
3 | network_0/router_level3_2/sw_allocator | Input grants = [ 2 -> 12  3 -> 11  4 -> 10  ], output grants = [ 10 -> 4  11 -> 3  12 -> 2  ].
3 | network_0/router_level3_2 | Assigning output 12.0 to VC 0 at input 2.0.
3 | network_0/router_level3_2 | Assigning output 11.0 to VC 0 at input 3.0.
3 | network_0/router_level3_2 | Assigning output 10.0 to VC 0 at input 4.0.
3 | network_0/router_level3_2 | Completed switch allocation for VC 0 at input 2 (front: 6).
3 | network_0/router_level3_2 |   Scheduling switch connection from input 2.0 to output 12.0.
3 | network_0/router_level3_2 | Updating lookahead routing information for flit 6.
3 | network_0/router_level3_2 | Completed switch allocation for VC 0 at input 3 (front: 7).
3 | network_0/router_level3_2 |   Scheduling switch connection from input 3.0 to output 11.0.
3 | network_0/router_level3_2 | Updating lookahead routing information for flit 7.
3 | network_0/router_level3_2 | Completed switch allocation for VC 0 at input 4 (front: 8).
3 | network_0/router_level3_2 |   Scheduling switch connection from input 4.0 to output 10.0.
3 | network_0/router_level3_2 | Updating lookahead routing information for flit 8.
3 | network_0/router_level3_3 | Beginning VC allocation for VC 0 at input 7 (front: 10).
3 | network_0/router_level3_3 |   VC 0 at output 8 is in use by VC 0 at input 6 (front flit: 9).
3 | network_0/router_level3_3 |   Requesting VC 1 at output 8 (in_pri: 0, out_pri: 0).
3 | network_0/router_level3_3 |   Requesting VC 2 at output 8 (in_pri: 0, out_pri: 0).
3 | network_0/router_level3_3 |   Requesting VC 3 at output 8 (in_pri: 0, out_pri: 0).
3 | network_0/router_level3_3/vc_allocator | Input requests = [ 0 -> [ 52@0 53@0 54@0 55@0 ]  28 -> [ 33@0 34@0 35@0 ]  ], output requests = [ 33 -> [ 28@0 ]  34 -> [ 28@0 ]  35 -> [ 28@0 ]  52 -> [ 0@0 ]  53 -> [ 0@0 ]  54 -> [ 0@0 ]  55 -> [ 0@0 ]  ].
3 | network_0/router_level3_3/vc_allocator | Input grants = [ 0 -> 52  28 -> 33  ], output grants = [ 33 -> 28  52 -> 0  ].
3 | network_0/router_level3_3 | Assigning VC 1 at output 8 to VC 0 at input 7.
3 | network_0/router_level3_3 | Beginning switch allocation for VC 0 at input 6 (front: 9).
3 | network_0/router_level3_3 |   Requesting output 8.0 (non-spec, pri: 0).
3 | network_0/router_level3_3/sw_allocator | Input requests = [ 6 -> [ 8@0 ]  ], output requests = [ 8 -> [ 6@0 ]  ].
3 | network_0/router_level3_3/sw_allocator | Input grants = [ 6 -> 8  ], output grants = [ 8 -> 6  ].
3 | network_0/router_level3_3 | Assigning output 8.0 to VC 0 at input 6.0.
3 | network_0/router_level3_3 | Completed VC allocation for VC 0 at input 7 (front: 10).
3 | network_0/router_level3_3 |   Acquiring assigned VC 1 at output 8.
3 | network_0/router_level3_3/buf_7/vc_0 | Changing state from vc_alloc to active.
3 | network_0/router_level3_3 | Completed switch allocation for VC 0 at input 6 (front: 9).
3 | network_0/router_level3_3 |   Scheduling switch connection from input 6.0 to output 8.0.
3 | network_0/router_level3_3 | Updating lookahead routing information for flit 9.
4 | network_0/router_level3_1 | Beginning VC allocation for VC 0 at input 5 (front: 3).
4 | network_0/router_level3_1 |   Requesting VC 0 at output 15 (in_pri: 0, out_pri: 0).
4 | network_0/router_level3_1 |   VC 1 at output 15 is in use by VC 1 at input 1 (front flit: 1586).
4 | network_0/router_level3_1 |   Requesting VC 2 at output 15 (in_pri: 0, out_pri: 0).
4 | network_0/router_level3_1 |   Requesting VC 3 at output 15 (in_pri: 0, out_pri: 0).
4 | network_0/router_level3_1/vc_allocator | Input requests = [ 0 -> [ 36@0 37@0 38@0 39@0 ]  6 -> [ 32@0 34@0 35@0 ]  20 -> [ 60@0 62@0 63@0 ]  21 -> [ 60@0 62@0 63@0 ]  22 -> [ 36@0 37@0 38@0 39@0 ]  ], output requests = [ 32 -> [ 6@0 ]  34 -> [ 6@0 ]  35 -> [ 6@0 ]  36 -> [ 0@0 22@0 ]  37 -> [ 0@0 22@0 ]  38 -> [ 0@0 22@0 ]  39 -> [ 0@0 22@0 ]  60 -> [ 20@0 21@0 ]  62 -> [ 20@0 21@0 ]  63 -> [ 20@0 21@0 ]  ].
4 | network_0/router_level3_1/vc_allocator | Input grants = [ 6 -> 32  20 -> 60  22 -> 36  ], output grants = [ 32 -> 6  36 -> 22  60 -> 20  ].
4 | network_0/router_level3_1 | Assigning VC 0 at output 15 to VC 0 at input 5.
4 | network_0/router_level3_1 | Beginning crossbar traversal for flit 1 from input 3.0 to output 15.0.
4 | network_0/router_level3_1 | Beginning crossbar traversal for flit 2 from input 4.0 to output 9.0.
4 | network_0/router_level3_1 | Beginning crossbar traversal for flit 4 from input 6.0 to output 11.0.
4 | network_0/router_level3_1 | Beginning crossbar traversal for flit 5 from input 7.0 to output 12.0.
4 | network_0/router_level3_1 | Completed VC allocation for VC 0 at input 5 (front: 3).
4 | network_0/router_level3_1 |   Acquiring assigned VC 0 at output 15.
4 | network_0/router_level3_1/buf_5/vc_0 | Changing state from vc_alloc to active.
4 | network_0/router_level3_1 | Completed crossbar traversal for flit 1 from input 3.0 to output 15.0.
4 | network_0/router_level3_1 | Buffering flit 1 at output 15.
4 | network_0/router_level3_1 | Completed crossbar traversal for flit 2 from input 4.0 to output 9.0.
4 | network_0/router_level3_1 | Buffering flit 2 at output 9.
4 | network_0/router_level3_1 | Completed crossbar traversal for flit 4 from input 6.0 to output 11.0.
4 | network_0/router_level3_1 | Buffering flit 4 at output 11.
4 | network_0/router_level3_1 | Completed crossbar traversal for flit 5 from input 7.0 to output 12.0.
4 | network_0/router_level3_1 | Buffering flit 5 at output 12.
4 | network_0/router_level3_2 | Beginning crossbar traversal for flit 6 from input 2.0 to output 12.0.
4 | network_0/router_level3_2 | Beginning crossbar traversal for flit 7 from input 3.0 to output 11.0.
4 | network_0/router_level3_2 | Beginning crossbar traversal for flit 8 from input 4.0 to output 10.0.
4 | network_0/router_level3_2 | Completed crossbar traversal for flit 6 from input 2.0 to output 12.0.
4 | network_0/router_level3_2 | Buffering flit 6 at output 12.
4 | network_0/router_level3_2 | Completed crossbar traversal for flit 7 from input 3.0 to output 11.0.
4 | network_0/router_level3_2 | Buffering flit 7 at output 11.
4 | network_0/router_level3_2 | Completed crossbar traversal for flit 8 from input 4.0 to output 10.0.
4 | network_0/router_level3_2 | Buffering flit 8 at output 10.
4 | network_0/router_level3_3 | Beginning switch allocation for VC 0 at input 7 (front: 10).
4 | network_0/router_level3_3 |   Requesting output 8.0 (non-spec, pri: 0).
4 | network_0/router_level3_3/sw_allocator | Input requests = [ 0 -> [ 13@0 ]  7 -> [ 8@0 ]  ], output requests = [ 8 -> [ 7@0 ]  13 -> [ 0@0 ]  ].
4 | network_0/router_level3_3/sw_allocator | Input grants = [ 0 -> 13  7 -> 8  ], output grants = [ 8 -> 7  13 -> 0  ].
4 | network_0/router_level3_3 | Assigning output 8.0 to VC 0 at input 7.0.
4 | network_0/router_level3_3 | Beginning crossbar traversal for flit 9 from input 6.0 to output 8.0.
4 | network_0/router_level3_3 | Completed switch allocation for VC 0 at input 7 (front: 10).
4 | network_0/router_level3_3 |   Scheduling switch connection from input 7.0 to output 8.0.
4 | network_0/router_level3_3 | Updating lookahead routing information for flit 10.
4 | network_0/router_level3_3 | Completed crossbar traversal for flit 9 from input 6.0 to output 8.0.
4 | network_0/router_level3_3 | Buffering flit 9 at output 8.
4 | network_0/router_level3_1 | Sending flit 2 to channel at output 9.
4 | network_0/router_level3_1 | Sending flit 4 to channel at output 11.
4 | network_0/router_level3_1 | Sending flit 5 to channel at output 12.
4 | network_0/router_level3_1 | Sending flit 1 to channel at output 15.
4 | network_0/router_level3_2 | Sending flit 8 to channel at output 10.
4 | network_0/router_level3_2 | Sending flit 7 to channel at output 11.
4 | network_0/router_level3_2 | Sending flit 6 to channel at output 12.
4 | network_0/router_level3_3 | Sending flit 9 to channel at output 8.
5 | network_0/network_0_fchan_20489 | Beginning channel traversal for flit 2 with delay 1.
5 | network_0/network_0_fchan_20491 | Beginning channel traversal for flit 4 with delay 1.
5 | network_0/network_0_fchan_20492 | Beginning channel traversal for flit 5 with delay 1.
5 | network_0/network_0_fchan_20495 | Beginning channel traversal for flit 1 with delay 1.
5 | network_0/network_0_fchan_20498 | Beginning channel traversal for flit 8 with delay 1.
5 | network_0/network_0_fchan_20499 | Beginning channel traversal for flit 7 with delay 1.
5 | network_0/network_0_fchan_20500 | Beginning channel traversal for flit 6 with delay 1.
5 | network_0/network_0_fchan_20504 | Beginning channel traversal for flit 9 with delay 1.
5 | network_0/router_level3_1 | Beginning switch allocation for VC 0 at input 5 (front: 3).
5 | network_0/router_level3_1 |   Requesting output 15.0 (non-spec, pri: 0).
5 | network_0/router_level3_1/sw_allocator | Input requests = [ 1 -> [ 8@0 ]  5 -> [ 9@0 15@0 ]  ], output requests = [ 8 -> [ 1@0 ]  9 -> [ 5@0 ]  15 -> [ 5@0 ]  ].
5 | network_0/router_level3_1/sw_allocator | Input grants = [ 1 -> 8  5 -> 9  ], output grants = [ 8 -> 1  9 -> 5  ].
5 | network_0/router_level3_1 | Switch allocation failed for VC 0 at input 5: Granted to VC 2.
5 | network_0/router_level3_1 | Completed switch allocation for VC 0 at input 5 (front: 3).
5 | network_0/router_level3_1 |   No output port allocated.
5 | network_0/router_level3_3 | Beginning crossbar traversal for flit 10 from input 7.0 to output 8.0.
5 | network_0/router_level3_3 | Completed crossbar traversal for flit 10 from input 7.0 to output 8.0.
5 | network_0/router_level3_3 | Buffering flit 10 at output 8.
5 | network_0/network_0_fchan_20489 | Completed channel traversal for flit 2.
5 | network_0/network_0_fchan_20491 | Completed channel traversal for flit 4.
5 | network_0/network_0_fchan_20492 | Completed channel traversal for flit 5.
5 | network_0/network_0_fchan_20495 | Completed channel traversal for flit 1.
5 | network_0/network_0_fchan_20498 | Completed channel traversal for flit 8.
5 | network_0/network_0_fchan_20499 | Completed channel traversal for flit 7.
5 | network_0/network_0_fchan_20500 | Completed channel traversal for flit 6.
5 | network_0/network_0_fchan_20504 | Completed channel traversal for flit 9.
5 | network_0/router_level3_3 | Sending flit 10 to channel at output 8.
6 | network_0/network_0_fchan_20504 | Beginning channel traversal for flit 10 with delay 1.
6 | network_0/router_level2_0 | Received flit 9 from channel at input 3.
6 | network_0/router_level2_1 | Received flit 2 from channel at input 1.
6 | network_0/router_level2_2 | Received flit 8 from channel at input 2.
6 | network_0/router_level2_3 | Received flit 4 from channel at input 1.
6 | network_0/router_level2_3 | Received flit 7 from channel at input 2.
6 | network_0/router_level2_4 | Received flit 5 from channel at input 1.
6 | network_0/router_level2_4 | Received flit 6 from channel at input 2.
6 | network_0/router_level2_7 | Received flit 1 from channel at input 1.
6 | network_0/router_level2_0 | Adding flit 9 to VC 0 at input 3 (state: idle, empty).
6 | network_0/router_level2_0 | Using precomputed lookahead routing information for VC 0 at input 3 (front: 9).
6 | network_0/router_level2_0/buf_3/vc_0 | Changing state from idle to vc_alloc.
6 | network_0/router_level2_0 | Beginning VC allocation for VC 0 at input 3 (front: 9).
6 | network_0/router_level2_0 |   Requesting VC 0 at output 15 (in_pri: 0, out_pri: 0).
6 | network_0/router_level2_0 |   Requesting VC 1 at output 15 (in_pri: 0, out_pri: 0).
6 | network_0/router_level2_0 |   Requesting VC 2 at output 15 (in_pri: 0, out_pri: 0).
6 | network_0/router_level2_0 |   Requesting VC 3 at output 15 (in_pri: 0, out_pri: 0).
6 | network_0/router_level2_0/vc_allocator | Input requests = [ 4 -> [ 32@0 33@0 34@0 35@0 ]  12 -> [ 60@0 61@0 62@0 63@0 ]  20 -> [ 36@0 37@0 38@0 39@0 ]  ], output requests = [ 32 -> [ 4@0 ]  33 -> [ 4@0 ]  34 -> [ 4@0 ]  35 -> [ 4@0 ]  36 -> [ 20@0 ]  37 -> [ 20@0 ]  38 -> [ 20@0 ]  39 -> [ 20@0 ]  60 -> [ 12@0 ]  61 -> [ 12@0 ]  62 -> [ 12@0 ]  63 -> [ 12@0 ]  ].
6 | network_0/router_level2_0/vc_allocator | Input grants = [ 4 -> 32  12 -> 60  20 -> 36  ], output grants = [ 32 -> 4  36 -> 20  60 -> 12  ].
6 | network_0/router_level2_0 | Assigning VC 0 at output 15 to VC 0 at input 3.
6 | network_0/router_level2_0 | Completed VC allocation for VC 0 at input 3 (front: 9).
6 | network_0/router_level2_0 |   Acquiring assigned VC 0 at output 15.
6 | network_0/router_level2_0/buf_3/vc_0 | Changing state from vc_alloc to active.
6 | network_0/router_level2_1 | Adding flit 2 to VC 0 at input 1 (state: idle, empty).
6 | network_0/router_level2_1 | Using precomputed lookahead routing information for VC 0 at input 1 (front: 2).
6 | network_0/router_level2_1/buf_1/vc_0 | Changing state from idle to vc_alloc.
6 | network_0/router_level2_1 | Beginning VC allocation for VC 0 at input 1 (front: 2).
6 | network_0/router_level2_1 |   Requesting VC 0 at output 11 (in_pri: 0, out_pri: 0).
6 | network_0/router_level2_1 |   Requesting VC 1 at output 11 (in_pri: 0, out_pri: 0).
6 | network_0/router_level2_1 |   Requesting VC 2 at output 11 (in_pri: 0, out_pri: 0).
6 | network_0/router_level2_1 |   Requesting VC 3 at output 11 (in_pri: 0, out_pri: 0).
6 | network_0/router_level2_1/vc_allocator | Input requests = [ 4 -> [ 44@0 45@0 46@0 47@0 ]  20 -> [ 40@0 41@0 42@0 43@0 ]  ], output requests = [ 40 -> [ 20@0 ]  41 -> [ 20@0 ]  42 -> [ 20@0 ]  43 -> [ 20@0 ]  44 -> [ 4@0 ]  45 -> [ 4@0 ]  46 -> [ 4@0 ]  47 -> [ 4@0 ]  ].
6 | network_0/router_level2_1/vc_allocator | Input grants = [ 4 -> 44  20 -> 40  ], output grants = [ 40 -> 20  44 -> 4  ].
6 | network_0/router_level2_1 | Assigning VC 0 at output 11 to VC 0 at input 1.
6 | network_0/router_level2_1 | Completed VC allocation for VC 0 at input 1 (front: 2).
6 | network_0/router_level2_1 |   Acquiring assigned VC 0 at output 11.
6 | network_0/router_level2_1/buf_1/vc_0 | Changing state from vc_alloc to active.
6 | network_0/router_level2_2 | Adding flit 8 to VC 0 at input 2 (state: idle, empty).
6 | network_0/router_level2_2 | Using precomputed lookahead routing information for VC 0 at input 2 (front: 8).
6 | network_0/router_level2_2/buf_2/vc_0 | Changing state from idle to vc_alloc.
6 | network_0/router_level2_2 | Beginning VC allocation for VC 0 at input 2 (front: 8).
6 | network_0/router_level2_2 |   Requesting VC 0 at output 11 (in_pri: 0, out_pri: 0).
6 | network_0/router_level2_2 |   Requesting VC 1 at output 11 (in_pri: 0, out_pri: 0).
6 | network_0/router_level2_2 |   Requesting VC 2 at output 11 (in_pri: 0, out_pri: 0).
6 | network_0/router_level2_2 |   Requesting VC 3 at output 11 (in_pri: 0, out_pri: 0).
6 | network_0/router_level2_2/vc_allocator | Input requests = [ 8 -> [ 44@0 45@0 46@0 47@0 ]  24 -> [ 60@0 61@0 62@0 63@0 ]  ], output requests = [ 44 -> [ 8@0 ]  45 -> [ 8@0 ]  46 -> [ 8@0 ]  47 -> [ 8@0 ]  60 -> [ 24@0 ]  61 -> [ 24@0 ]  62 -> [ 24@0 ]  63 -> [ 24@0 ]  ].
6 | network_0/router_level2_2/vc_allocator | Input grants = [ 8 -> 44  24 -> 60  ], output grants = [ 44 -> 8  60 -> 24  ].
6 | network_0/router_level2_2 | Assigning VC 0 at output 11 to VC 0 at input 2.
6 | network_0/router_level2_2 | Completed VC allocation for VC 0 at input 2 (front: 8).
6 | network_0/router_level2_2 |   Acquiring assigned VC 0 at output 11.
6 | network_0/router_level2_2/buf_2/vc_0 | Changing state from vc_alloc to active.
6 | network_0/router_level2_3 | Adding flit 4 to VC 0 at input 1 (state: idle, empty).
6 | network_0/router_level2_3 | Using precomputed lookahead routing information for VC 0 at input 1 (front: 4).
6 | network_0/router_level2_3/buf_1/vc_0 | Changing state from idle to vc_alloc.
6 | network_0/router_level2_3 | Adding flit 7 to VC 0 at input 2 (state: idle, empty).
6 | network_0/router_level2_3 | Using precomputed lookahead routing information for VC 0 at input 2 (front: 7).
6 | network_0/router_level2_3/buf_2/vc_0 | Changing state from idle to vc_alloc.
6 | network_0/router_level2_3 | Beginning VC allocation for VC 0 at input 1 (front: 4).
6 | network_0/router_level2_3 |   Requesting VC 0 at output 8 (in_pri: 0, out_pri: 0).
6 | network_0/router_level2_3 |   Requesting VC 1 at output 8 (in_pri: 0, out_pri: 0).
6 | network_0/router_level2_3 |   Requesting VC 2 at output 8 (in_pri: 0, out_pri: 0).
6 | network_0/router_level2_3 |   Requesting VC 3 at output 8 (in_pri: 0, out_pri: 0).
6 | network_0/router_level2_3 | Beginning VC allocation for VC 0 at input 2 (front: 7).
6 | network_0/router_level2_3 |   Requesting VC 0 at output 12 (in_pri: 0, out_pri: 0).
6 | network_0/router_level2_3 |   Requesting VC 1 at output 12 (in_pri: 0, out_pri: 0).
6 | network_0/router_level2_3 |   Requesting VC 2 at output 12 (in_pri: 0, out_pri: 0).
6 | network_0/router_level2_3 |   Requesting VC 3 at output 12 (in_pri: 0, out_pri: 0).
6 | network_0/router_level2_3/vc_allocator | Input requests = [ 4 -> [ 32@0 33@0 34@0 35@0 ]  8 -> [ 48@0 49@0 50@0 51@0 ]  20 -> [ 40@0 41@0 42@0 43@0 ]  24 -> [ 48@0 49@0 50@0 51@0 ]  ], output requests = [ 32 -> [ 4@0 ]  33 -> [ 4@0 ]  34 -> [ 4@0 ]  35 -> [ 4@0 ]  40 -> [ 20@0 ]  41 -> [ 20@0 ]  42 -> [ 20@0 ]  43 -> [ 20@0 ]  48 -> [ 8@0 24@0 ]  49 -> [ 8@0 24@0 ]  50 -> [ 8@0 24@0 ]  51 -> [ 8@0 24@0 ]  ].
6 | network_0/router_level2_3/vc_allocator | Input grants = [ 4 -> 32  8 -> 48  20 -> 40  ], output grants = [ 32 -> 4  40 -> 20  48 -> 8  ].
6 | network_0/router_level2_3 | Assigning VC 0 at output 8 to VC 0 at input 1.
6 | network_0/router_level2_3 | Assigning VC 0 at output 12 to VC 0 at input 2.
6 | network_0/router_level2_3 | Completed VC allocation for VC 0 at input 1 (front: 4).
6 | network_0/router_level2_3 |   Acquiring assigned VC 0 at output 8.
6 | network_0/router_level2_3/buf_1/vc_0 | Changing state from vc_alloc to active.
6 | network_0/router_level2_3 | Completed VC allocation for VC 0 at input 2 (front: 7).
6 | network_0/router_level2_3 |   Acquiring assigned VC 0 at output 12.
6 | network_0/router_level2_3/buf_2/vc_0 | Changing state from vc_alloc to active.
6 | network_0/router_level2_4 | Adding flit 5 to VC 0 at input 1 (state: idle, empty).
6 | network_0/router_level2_4 | Using precomputed lookahead routing information for VC 0 at input 1 (front: 5).
6 | network_0/router_level2_4/buf_1/vc_0 | Changing state from idle to vc_alloc.
6 | network_0/router_level2_4 | Adding flit 6 to VC 0 at input 2 (state: idle, empty).
6 | network_0/router_level2_4 | Using precomputed lookahead routing information for VC 0 at input 2 (front: 6).
6 | network_0/router_level2_4/buf_2/vc_0 | Changing state from idle to vc_alloc.
6 | network_0/router_level2_4 | Beginning VC allocation for VC 0 at input 1 (front: 5).
6 | network_0/router_level2_4 |   Requesting VC 0 at output 11 (in_pri: 0, out_pri: 0).
6 | network_0/router_level2_4 |   Requesting VC 1 at output 11 (in_pri: 0, out_pri: 0).
6 | network_0/router_level2_4 |   Requesting VC 2 at output 11 (in_pri: 0, out_pri: 0).
6 | network_0/router_level2_4 |   Requesting VC 3 at output 11 (in_pri: 0, out_pri: 0).
6 | network_0/router_level2_4 | Beginning VC allocation for VC 0 at input 2 (front: 6).
6 | network_0/router_level2_4 |   Requesting VC 0 at output 9 (in_pri: 0, out_pri: 0).
6 | network_0/router_level2_4 |   Requesting VC 1 at output 9 (in_pri: 0, out_pri: 0).
6 | network_0/router_level2_4 |   Requesting VC 2 at output 9 (in_pri: 0, out_pri: 0).
6 | network_0/router_level2_4 |   Requesting VC 3 at output 9 (in_pri: 0, out_pri: 0).
6 | network_0/router_level2_4/vc_allocator | Input requests = [ 4 -> [ 44@0 45@0 46@0 47@0 ]  8 -> [ 36@0 37@0 38@0 39@0 ]  28 -> [ 56@0 57@0 58@0 59@0 ]  ], output requests = [ 36 -> [ 8@0 ]  37 -> [ 8@0 ]  38 -> [ 8@0 ]  39 -> [ 8@0 ]  44 -> [ 4@0 ]  45 -> [ 4@0 ]  46 -> [ 4@0 ]  47 -> [ 4@0 ]  56 -> [ 28@0 ]  57 -> [ 28@0 ]  58 -> [ 28@0 ]  59 -> [ 28@0 ]  ].
6 | network_0/router_level2_4/vc_allocator | Input grants = [ 4 -> 44  8 -> 36  28 -> 56  ], output grants = [ 36 -> 8  44 -> 4  56 -> 28  ].
6 | network_0/router_level2_4 | Assigning VC 0 at output 11 to VC 0 at input 1.
6 | network_0/router_level2_4 | Assigning VC 0 at output 9 to VC 0 at input 2.
6 | network_0/router_level2_4 | Completed VC allocation for VC 0 at input 1 (front: 5).
6 | network_0/router_level2_4 |   Acquiring assigned VC 0 at output 11.
6 | network_0/router_level2_4/buf_1/vc_0 | Changing state from vc_alloc to active.
6 | network_0/router_level2_4 | Completed VC allocation for VC 0 at input 2 (front: 6).
6 | network_0/router_level2_4 |   Acquiring assigned VC 0 at output 9.
6 | network_0/router_level2_4/buf_2/vc_0 | Changing state from vc_alloc to active.
6 | network_0/router_level2_7 | Adding flit 1 to VC 0 at input 1 (state: idle, empty).
6 | network_0/router_level2_7 | Using precomputed lookahead routing information for VC 0 at input 1 (front: 1).
6 | network_0/router_level2_7/buf_1/vc_0 | Changing state from idle to vc_alloc.
6 | network_0/router_level2_7 | Beginning VC allocation for VC 0 at input 1 (front: 1).
6 | network_0/router_level2_7 |   Requesting VC 0 at output 15 (in_pri: 0, out_pri: 0).
6 | network_0/router_level2_7 |   Requesting VC 1 at output 15 (in_pri: 0, out_pri: 0).
6 | network_0/router_level2_7 |   Requesting VC 2 at output 15 (in_pri: 0, out_pri: 0).
6 | network_0/router_level2_7 |   Requesting VC 3 at output 15 (in_pri: 0, out_pri: 0).
6 | network_0/router_level2_7/vc_allocator | Input requests = [ 4 -> [ 60@0 61@0 62@0 63@0 ]  24 -> [ 32@0 33@0 34@0 35@0 ]  28 -> [ 60@0 61@0 62@0 63@0 ]  ], output requests = [ 32 -> [ 24@0 ]  33 -> [ 24@0 ]  34 -> [ 24@0 ]  35 -> [ 24@0 ]  60 -> [ 4@0 28@0 ]  61 -> [ 4@0 28@0 ]  62 -> [ 4@0 28@0 ]  63 -> [ 4@0 28@0 ]  ].
6 | network_0/router_level2_7/vc_allocator | Input grants = [ 4 -> 60  24 -> 32  ], output grants = [ 32 -> 24  60 -> 4  ].
6 | network_0/router_level2_7 | Assigning VC 0 at output 15 to VC 0 at input 1.
6 | network_0/router_level2_7 | Completed VC allocation for VC 0 at input 1 (front: 1).
6 | network_0/router_level2_7 |   Acquiring assigned VC 0 at output 15.
6 | network_0/router_level2_7/buf_1/vc_0 | Changing state from vc_alloc to active.
6 | network_0/router_level3_1 | Beginning switch allocation for VC 0 at input 5 (front: 3).
6 | network_0/router_level3_1 |   Replacing earlier request from VC 1 for output 15.0 with priority 0 (non-spec, pri: 0).
6 | network_0/router_level3_1/sw_allocator | Input requests = [ 0 -> [ 9@0 ]  5 -> [ 10@0 15@0 ]  6 -> [ 13@0 ]  ], output requests = [ 9 -> [ 0@0 ]  10 -> [ 5@0 ]  13 -> [ 6@0 ]  15 -> [ 5@0 ]  ].
6 | network_0/router_level3_1/sw_allocator | Input grants = [ 0 -> 9  5 -> 10  6 -> 13  ], output grants = [ 9 -> 0  10 -> 5  13 -> 6  ].
6 | network_0/router_level3_1 | Switch allocation failed for VC 0 at input 5: Granted to VC 3.
6 | network_0/router_level3_1 | Completed switch allocation for VC 0 at input 5 (front: 3).
6 | network_0/router_level3_1 |   No output port allocated.
6 | network_0/network_0_fchan_20504 | Completed channel traversal for flit 10.
7 | network_0/router_level2_0 | Received flit 10 from channel at input 3.
7 | network_0/router_level2_0 | Adding flit 10 to VC 1 at input 3 (state: idle, empty).
7 | network_0/router_level2_0 | Using precomputed lookahead routing information for VC 1 at input 3 (front: 10).
7 | network_0/router_level2_0/buf_3/vc_1 | Changing state from idle to vc_alloc.
7 | network_0/router_level2_0 | Beginning VC allocation for VC 1 at input 3 (front: 10).
7 | network_0/router_level2_0 |   Requesting VC 0 at output 11 (in_pri: 0, out_pri: 0).
7 | network_0/router_level2_0 |   Requesting VC 1 at output 11 (in_pri: 0, out_pri: 0).
7 | network_0/router_level2_0 |   Requesting VC 2 at output 11 (in_pri: 0, out_pri: 0).
7 | network_0/router_level2_0 |   Requesting VC 3 at output 11 (in_pri: 0, out_pri: 0).
7 | network_0/router_level2_0/vc_allocator | Input requests = [ 5 -> [ 33@0 34@0 35@0 ]  13 -> [ 44@0 45@0 46@0 47@0 ]  28 -> [ 33@0 34@0 35@0 ]  ], output requests = [ 33 -> [ 5@0 28@0 ]  34 -> [ 5@0 28@0 ]  35 -> [ 5@0 28@0 ]  44 -> [ 13@0 ]  45 -> [ 13@0 ]  46 -> [ 13@0 ]  47 -> [ 13@0 ]  ].
7 | network_0/router_level2_0/vc_allocator | Input grants = [ 5 -> 33  13 -> 44  ], output grants = [ 33 -> 5  44 -> 13  ].
7 | network_0/router_level2_0 | Assigning VC 0 at output 11 to VC 1 at input 3.
7 | network_0/router_level2_0 | Beginning switch allocation for VC 0 at input 3 (front: 9).
7 | network_0/router_level2_0 |   Requesting output 15.0 (non-spec, pri: 0).
7 | network_0/router_level2_0/sw_allocator | Input requests = [ 1 -> [ 8@0 ]  3 -> [ 15@0 ]  5 -> [ 9@0 ]  ], output requests = [ 8 -> [ 1@0 ]  9 -> [ 5@0 ]  15 -> [ 3@0 ]  ].
7 | network_0/router_level2_0/sw_allocator | Input grants = [ 1 -> 8  3 -> 15  5 -> 9  ], output grants = [ 8 -> 1  9 -> 5  15 -> 3  ].
7 | network_0/router_level2_0 | Assigning output 15.0 to VC 0 at input 3.0.
7 | network_0/router_level2_0 | Completed VC allocation for VC 1 at input 3 (front: 10).
7 | network_0/router_level2_0 |   Acquiring assigned VC 0 at output 11.
7 | network_0/router_level2_0/buf_3/vc_1 | Changing state from vc_alloc to active.
7 | network_0/router_level2_0 | Completed switch allocation for VC 0 at input 3 (front: 9).
7 | network_0/router_level2_0 |   Scheduling switch connection from input 3.0 to output 15.0.
7 | network_0/router_level2_0 | Updating lookahead routing information for flit 9.
7 | network_0/router_level2_1 | Beginning switch allocation for VC 0 at input 1 (front: 2).
7 | network_0/router_level2_1 |   Requesting output 11.0 (non-spec, pri: 0).
7 | network_0/router_level2_1/sw_allocator | Input requests = [ 1 -> [ 11@0 ]  5 -> [ 10@0 ]  ], output requests = [ 10 -> [ 5@0 ]  11 -> [ 1@0 ]  ].
7 | network_0/router_level2_1/sw_allocator | Input grants = [ 1 -> 11  5 -> 10  ], output grants = [ 10 -> 5  11 -> 1  ].
7 | network_0/router_level2_1 | Assigning output 11.0 to VC 0 at input 1.0.
7 | network_0/router_level2_1 | Completed switch allocation for VC 0 at input 1 (front: 2).
7 | network_0/router_level2_1 |   Scheduling switch connection from input 1.0 to output 11.0.
7 | network_0/router_level2_1 | Updating lookahead routing information for flit 2.
7 | network_0/router_level2_2 | Beginning switch allocation for VC 0 at input 2 (front: 8).
7 | network_0/router_level2_2 |   Requesting output 11.0 (non-spec, pri: 0).
7 | network_0/router_level2_2/sw_allocator | Input requests = [ 2 -> [ 11@0 ]  6 -> [ 15@0 ]  ], output requests = [ 11 -> [ 2@0 ]  15 -> [ 6@0 ]  ].
7 | network_0/router_level2_2/sw_allocator | Input grants = [ 2 -> 11  6 -> 15  ], output grants = [ 11 -> 2  15 -> 6  ].
7 | network_0/router_level2_2 | Assigning output 11.0 to VC 0 at input 2.0.
7 | network_0/router_level2_2 | Completed switch allocation for VC 0 at input 2 (front: 8).
7 | network_0/router_level2_2 |   Scheduling switch connection from input 2.0 to output 11.0.
7 | network_0/router_level2_2 | Updating lookahead routing information for flit 8.
7 | network_0/router_level2_3 | Beginning switch allocation for VC 0 at input 1 (front: 4).
7 | network_0/router_level2_3 |   Requesting output 8.0 (non-spec, pri: 0).
7 | network_0/router_level2_3 | Beginning switch allocation for VC 0 at input 2 (front: 7).
7 | network_0/router_level2_3 |   Requesting output 12.0 (non-spec, pri: 0).
7 | network_0/router_level2_3/sw_allocator | Input requests = [ 1 -> [ 8@0 ]  2 -> [ 12@0 ]  5 -> [ 10@0 ]  ], output requests = [ 8 -> [ 1@0 ]  10 -> [ 5@0 ]  12 -> [ 2@0 ]  ].
7 | network_0/router_level2_3/sw_allocator | Input grants = [ 1 -> 8  2 -> 12  5 -> 10  ], output grants = [ 8 -> 1  10 -> 5  12 -> 2  ].
7 | network_0/router_level2_3 | Assigning output 8.0 to VC 0 at input 1.0.
7 | network_0/router_level2_3 | Assigning output 12.0 to VC 0 at input 2.0.
7 | network_0/router_level2_3 | Completed switch allocation for VC 0 at input 1 (front: 4).
7 | network_0/router_level2_3 |   Scheduling switch connection from input 1.0 to output 8.0.
7 | network_0/router_level2_3 | Updating lookahead routing information for flit 4.
7 | network_0/router_level2_3 | Completed switch allocation for VC 0 at input 2 (front: 7).
7 | network_0/router_level2_3 |   Scheduling switch connection from input 2.0 to output 12.0.
7 | network_0/router_level2_3 | Updating lookahead routing information for flit 7.
7 | network_0/router_level2_4 | Beginning switch allocation for VC 0 at input 1 (front: 5).
7 | network_0/router_level2_4 |   Requesting output 11.0 (non-spec, pri: 0).
7 | network_0/router_level2_4 | Beginning switch allocation for VC 0 at input 2 (front: 6).
7 | network_0/router_level2_4 |   Requesting output 9.0 (non-spec, pri: 0).
7 | network_0/router_level2_4/sw_allocator | Input requests = [ 1 -> [ 11@0 ]  2 -> [ 9@0 ]  7 -> [ 14@0 ]  ], output requests = [ 9 -> [ 2@0 ]  11 -> [ 1@0 ]  14 -> [ 7@0 ]  ].
7 | network_0/router_level2_4/sw_allocator | Input grants = [ 1 -> 11  2 -> 9  7 -> 14  ], output grants = [ 9 -> 2  11 -> 1  14 -> 7  ].
7 | network_0/router_level2_4 | Assigning output 11.0 to VC 0 at input 1.0.
7 | network_0/router_level2_4 | Assigning output 9.0 to VC 0 at input 2.0.
7 | network_0/router_level2_4 | Completed switch allocation for VC 0 at input 1 (front: 5).
7 | network_0/router_level2_4 |   Scheduling switch connection from input 1.0 to output 11.0.
7 | network_0/router_level2_4 | Updating lookahead routing information for flit 5.
7 | network_0/router_level2_4 | Completed switch allocation for VC 0 at input 2 (front: 6).
7 | network_0/router_level2_4 |   Scheduling switch connection from input 2.0 to output 9.0.
7 | network_0/router_level2_4 | Updating lookahead routing information for flit 6.
7 | network_0/router_level2_7 | Beginning switch allocation for VC 0 at input 1 (front: 1).
7 | network_0/router_level2_7 |   Requesting output 15.0 (non-spec, pri: 0).
7 | network_0/router_level2_7/sw_allocator | Input requests = [ 1 -> [ 15@0 ]  6 -> [ 8@0 ]  ], output requests = [ 8 -> [ 6@0 ]  15 -> [ 1@0 ]  ].
7 | network_0/router_level2_7/sw_allocator | Input grants = [ 1 -> 15  6 -> 8  ], output grants = [ 8 -> 6  15 -> 1  ].
7 | network_0/router_level2_7 | Assigning output 15.0 to VC 0 at input 1.0.
7 | network_0/router_level2_7 | Completed switch allocation for VC 0 at input 1 (front: 1).
7 | network_0/router_level2_7 |   Scheduling switch connection from input 1.0 to output 15.0.
7 | network_0/router_level2_7 | Updating lookahead routing information for flit 1.
7 | network_0/router_level3_1 | Beginning switch allocation for VC 0 at input 5 (front: 3).
7 | network_0/router_level3_1 |   Replacing earlier request from VC 1 for output 15.0 with priority 0 (non-spec, pri: 0).
7 | network_0/router_level3_1/sw_allocator | Input requests = [ 0 -> [ 14@0 ]  2 -> [ 9@0 15@0 ]  5 -> [ 15@0 ]  ], output requests = [ 9 -> [ 2@0 ]  14 -> [ 0@0 ]  15 -> [ 2@0 5@0 ]  ].
7 | network_0/router_level3_1/sw_allocator | Input grants = [ 0 -> 14  2 -> 9  5 -> 15  ], output grants = [ 9 -> 2  14 -> 0  15 -> 5  ].
7 | network_0/router_level3_1 | Assigning output 15.0 to VC 0 at input 5.0.
7 | network_0/router_level3_1 | Completed switch allocation for VC 0 at input 5 (front: 3).
7 | network_0/router_level3_1 |   Scheduling switch connection from input 5.0 to output 15.0.
7 | network_0/router_level3_1 | Updating lookahead routing information for flit 3.
8 | network_0/router_level2_0 | Beginning switch allocation for VC 1 at input 3 (front: 10).
8 | network_0/router_level2_0 |   Requesting output 11.0 (non-spec, pri: 0).
8 | network_0/router_level2_0/sw_allocator | Input requests = [ 1 -> [ 8@0 ]  3 -> [ 11@0 ]  ], output requests = [ 8 -> [ 1@0 ]  11 -> [ 3@0 ]  ].
8 | network_0/router_level2_0/sw_allocator | Input grants = [ 1 -> 8  3 -> 11  ], output grants = [ 8 -> 1  11 -> 3  ].
8 | network_0/router_level2_0 | Assigning output 11.0 to VC 1 at input 3.0.
8 | network_0/router_level2_0 | Beginning crossbar traversal for flit 9 from input 3.0 to output 15.0.
8 | network_0/router_level2_0 | Completed switch allocation for VC 1 at input 3 (front: 10).
8 | network_0/router_level2_0 |   Scheduling switch connection from input 3.0 to output 11.0.
8 | network_0/router_level2_0 | Updating lookahead routing information for flit 10.
8 | network_0/router_level2_0 | Completed crossbar traversal for flit 9 from input 3.0 to output 15.0.
8 | network_0/router_level2_0 | Buffering flit 9 at output 15.
8 | network_0/router_level2_1 | Beginning crossbar traversal for flit 2 from input 1.0 to output 11.0.
8 | network_0/router_level2_1 | Completed crossbar traversal for flit 2 from input 1.0 to output 11.0.
8 | network_0/router_level2_1 | Buffering flit 2 at output 11.
8 | network_0/router_level2_2 | Beginning crossbar traversal for flit 8 from input 2.0 to output 11.0.
8 | network_0/router_level2_2 | Completed crossbar traversal for flit 8 from input 2.0 to output 11.0.
8 | network_0/router_level2_2 | Buffering flit 8 at output 11.
8 | network_0/router_level2_3 | Beginning crossbar traversal for flit 4 from input 1.0 to output 8.0.
8 | network_0/router_level2_3 | Beginning crossbar traversal for flit 7 from input 2.0 to output 12.0.
8 | network_0/router_level2_3 | Completed crossbar traversal for flit 4 from input 1.0 to output 8.0.
8 | network_0/router_level2_3 | Buffering flit 4 at output 8.
8 | network_0/router_level2_3 | Completed crossbar traversal for flit 7 from input 2.0 to output 12.0.
8 | network_0/router_level2_3 | Buffering flit 7 at output 12.
8 | network_0/router_level2_4 | Beginning crossbar traversal for flit 5 from input 1.0 to output 11.0.
8 | network_0/router_level2_4 | Beginning crossbar traversal for flit 6 from input 2.0 to output 9.0.
8 | network_0/router_level2_4 | Completed crossbar traversal for flit 5 from input 1.0 to output 11.0.
8 | network_0/router_level2_4 | Buffering flit 5 at output 11.
8 | network_0/router_level2_4 | Completed crossbar traversal for flit 6 from input 2.0 to output 9.0.
8 | network_0/router_level2_4 | Buffering flit 6 at output 9.
8 | network_0/router_level2_7 | Beginning crossbar traversal for flit 1 from input 1.0 to output 15.0.
8 | network_0/router_level2_7 | Completed crossbar traversal for flit 1 from input 1.0 to output 15.0.
8 | network_0/router_level2_7 | Buffering flit 1 at output 15.
8 | network_0/router_level3_1 | Beginning crossbar traversal for flit 3 from input 5.0 to output 15.0.
8 | network_0/router_level3_1 | Completed crossbar traversal for flit 3 from input 5.0 to output 15.0.
8 | network_0/router_level3_1 | Buffering flit 3 at output 15.
8 | network_0/router_level2_0 | Sending flit 9 to channel at output 15.
8 | network_0/router_level2_1 | Sending flit 2 to channel at output 11.
8 | network_0/router_level2_2 | Sending flit 8 to channel at output 11.
8 | network_0/router_level2_3 | Sending flit 4 to channel at output 8.
8 | network_0/router_level2_3 | Sending flit 7 to channel at output 12.
8 | network_0/router_level2_4 | Sending flit 6 to channel at output 9.
8 | network_0/router_level2_4 | Sending flit 5 to channel at output 11.
8 | network_0/router_level2_7 | Sending flit 1 to channel at output 15.
8 | network_0/router_level3_1 | Sending flit 3 to channel at output 15.
9 | network_0/network_0_fchan_12295 | Beginning channel traversal for flit 9 with delay 1.
9 | network_0/network_0_fchan_12299 | Beginning channel traversal for flit 2 with delay 1.
9 | network_0/network_0_fchan_12307 | Beginning channel traversal for flit 8 with delay 1.
9 | network_0/network_0_fchan_12312 | Beginning channel traversal for flit 4 with delay 1.
9 | network_0/network_0_fchan_12316 | Beginning channel traversal for flit 7 with delay 1.
9 | network_0/network_0_fchan_12321 | Beginning channel traversal for flit 6 with delay 1.
9 | network_0/network_0_fchan_12323 | Beginning channel traversal for flit 5 with delay 1.
9 | network_0/network_0_fchan_12351 | Beginning channel traversal for flit 1 with delay 1.
9 | network_0/network_0_fchan_20495 | Beginning channel traversal for flit 3 with delay 1.
9 | network_0/router_level2_0 | Beginning crossbar traversal for flit 10 from input 3.0 to output 11.0.
9 | network_0/router_level2_0 | Completed crossbar traversal for flit 10 from input 3.0 to output 11.0.
9 | network_0/router_level2_0 | Buffering flit 10 at output 11.
9 | network_0/network_0_fchan_12295 | Completed channel traversal for flit 9.
9 | network_0/network_0_fchan_12299 | Completed channel traversal for flit 2.
9 | network_0/network_0_fchan_12307 | Completed channel traversal for flit 8.
9 | network_0/network_0_fchan_12312 | Completed channel traversal for flit 4.
9 | network_0/network_0_fchan_12316 | Completed channel traversal for flit 7.
9 | network_0/network_0_fchan_12321 | Completed channel traversal for flit 6.
9 | network_0/network_0_fchan_12323 | Completed channel traversal for flit 5.
9 | network_0/network_0_fchan_12351 | Completed channel traversal for flit 1.
9 | network_0/network_0_fchan_20495 | Completed channel traversal for flit 3.
9 | network_0/router_level2_0 | Sending flit 10 to channel at output 11.
10 | network_0/network_0_fchan_12291 | Beginning channel traversal for flit 10 with delay 1.
10 | network_0/router_level1_3 | Received flit 4 from channel at input 0.
10 | network_0/router_level1_12 | Received flit 6 from channel at input 0.
10 | network_0/router_level1_25 | Received flit 2 from channel at input 0.
10 | network_0/router_level1_26 | Received flit 8 from channel at input 0.
10 | network_0/router_level1_28 | Received flit 5 from channel at input 0.
10 | network_0/router_level1_35 | Received flit 7 from channel at input 0.
10 | network_0/router_level1_56 | Received flit 9 from channel at input 0.
10 | network_0/router_level1_63 | Received flit 1 from channel at input 0.
10 | network_0/router_level2_7 | Received flit 3 from channel at input 1.
10 | network_0/router_level1_3 | Adding flit 4 to VC 0 at input 0 (state: idle, empty).
10 | network_0/router_level1_3 | Using precomputed lookahead routing information for VC 0 at input 0 (front: 4).
10 | network_0/router_level1_3/buf_0/vc_0 | Changing state from idle to vc_alloc.
10 | network_0/router_level1_3 | Beginning VC allocation for VC 0 at input 0 (front: 4).
10 | network_0/router_level1_3 |   Requesting VC 0 at output 8 (in_pri: 0, out_pri: 0).
10 | network_0/router_level1_3 |   Requesting VC 1 at output 8 (in_pri: 0, out_pri: 0).
10 | network_0/router_level1_3 |   Requesting VC 2 at output 8 (in_pri: 0, out_pri: 0).
10 | network_0/router_level1_3 |   Requesting VC 3 at output 8 (in_pri: 0, out_pri: 0).
10 | network_0/router_level1_3/vc_allocator | Input requests = [ 0 -> [ 32@0 33@0 34@0 35@0 ]  4 -> [ 32@0 33@0 34@0 35@0 ]  20 -> [ 36@0 37@0 38@0 39@0 ]  24 -> [ 36@0 37@0 38@0 39@0 ]  ], output requests = [ 32 -> [ 0@0 4@0 ]  33 -> [ 0@0 4@0 ]  34 -> [ 0@0 4@0 ]  35 -> [ 0@0 4@0 ]  36 -> [ 20@0 24@0 ]  37 -> [ 20@0 24@0 ]  38 -> [ 20@0 24@0 ]  39 -> [ 20@0 24@0 ]  ].
10 | network_0/router_level1_3/vc_allocator | Input grants = [ 0 -> 32  20 -> 36  ], output grants = [ 32 -> 0  36 -> 20  ].
10 | network_0/router_level1_3 | Assigning VC 0 at output 8 to VC 0 at input 0.
10 | network_0/router_level1_3 | Completed VC allocation for VC 0 at input 0 (front: 4).
10 | network_0/router_level1_3 |   Acquiring assigned VC 0 at output 8.
10 | network_0/router_level1_3/buf_0/vc_0 | Changing state from vc_alloc to active.
10 | network_0/router_level1_12 | Adding flit 6 to VC 0 at input 0 (state: idle, empty).
10 | network_0/router_level1_12 | Using precomputed lookahead routing information for VC 0 at input 0 (front: 6).
10 | network_0/router_level1_12/buf_0/vc_0 | Changing state from idle to vc_alloc.
10 | network_0/router_level1_12 | Beginning VC allocation for VC 0 at input 0 (front: 6).
10 | network_0/router_level1_12 |   Requesting VC 0 at output 9 (in_pri: 0, out_pri: 0).
10 | network_0/router_level1_12 |   Requesting VC 1 at output 9 (in_pri: 0, out_pri: 0).
10 | network_0/router_level1_12 |   Requesting VC 2 at output 9 (in_pri: 0, out_pri: 0).
10 | network_0/router_level1_12 |   Requesting VC 3 at output 9 (in_pri: 0, out_pri: 0).
10 | network_0/router_level1_12/vc_allocator | Input requests = [ 0 -> [ 36@0 37@0 38@0 39@0 ]  ], output requests = [ 36 -> [ 0@0 ]  37 -> [ 0@0 ]  38 -> [ 0@0 ]  39 -> [ 0@0 ]  ].
10 | network_0/router_level1_12/vc_allocator | Input grants = [ 0 -> 36  ], output grants = [ 36 -> 0  ].
10 | network_0/router_level1_12 | Assigning VC 0 at output 9 to VC 0 at input 0.
10 | network_0/router_level1_12 | Completed VC allocation for VC 0 at input 0 (front: 6).
10 | network_0/router_level1_12 |   Acquiring assigned VC 0 at output 9.
10 | network_0/router_level1_12/buf_0/vc_0 | Changing state from vc_alloc to active.
10 | network_0/router_level1_25 | Adding flit 2 to VC 0 at input 0 (state: idle, empty).
10 | network_0/router_level1_25 | Using precomputed lookahead routing information for VC 0 at input 0 (front: 2).
10 | network_0/router_level1_25/buf_0/vc_0 | Changing state from idle to vc_alloc.
10 | network_0/router_level1_25 | Beginning VC allocation for VC 0 at input 0 (front: 2).
10 | network_0/router_level1_25 |   Requesting VC 0 at output 9 (in_pri: 0, out_pri: 0).
10 | network_0/router_level1_25 |   Requesting VC 1 at output 9 (in_pri: 0, out_pri: 0).
10 | network_0/router_level1_25 |   Requesting VC 2 at output 9 (in_pri: 0, out_pri: 0).
10 | network_0/router_level1_25 |   Requesting VC 3 at output 9 (in_pri: 0, out_pri: 0).
10 | network_0/router_level1_25/vc_allocator | Input requests = [ 0 -> [ 36@0 37@0 38@0 39@0 ]  8 -> [ 36@0 37@0 38@0 39@0 ]  20 -> [ 32@0 33@0 34@0 35@0 ]  24 -> [ 36@0 37@0 38@0 39@0 ]  ], output requests = [ 32 -> [ 20@0 ]  33 -> [ 20@0 ]  34 -> [ 20@0 ]  35 -> [ 20@0 ]  36 -> [ 0@0 8@0 24@0 ]  37 -> [ 0@0 8@0 24@0 ]  38 -> [ 0@0 8@0 24@0 ]  39 -> [ 0@0 8@0 24@0 ]  ].
10 | network_0/router_level1_25/vc_allocator | Input grants = [ 0 -> 36  20 -> 32  ], output grants = [ 32 -> 20  36 -> 0  ].
10 | network_0/router_level1_25 | Assigning VC 0 at output 9 to VC 0 at input 0.
10 | network_0/router_level1_25 | Completed VC allocation for VC 0 at input 0 (front: 2).
10 | network_0/router_level1_25 |   Acquiring assigned VC 0 at output 9.
10 | network_0/router_level1_25/buf_0/vc_0 | Changing state from vc_alloc to active.
10 | network_0/router_level1_26 | Adding flit 8 to VC 0 at input 0 (state: idle, empty).
10 | network_0/router_level1_26 | Using precomputed lookahead routing information for VC 0 at input 0 (front: 8).
10 | network_0/router_level1_26/buf_0/vc_0 | Changing state from idle to vc_alloc.
10 | network_0/router_level1_26 | Beginning VC allocation for VC 0 at input 0 (front: 8).
10 | network_0/router_level1_26 |   Requesting VC 0 at output 9 (in_pri: 0, out_pri: 0).
10 | network_0/router_level1_26 |   Requesting VC 1 at output 9 (in_pri: 0, out_pri: 0).
10 | network_0/router_level1_26 |   Requesting VC 2 at output 9 (in_pri: 0, out_pri: 0).
10 | network_0/router_level1_26 |   Requesting VC 3 at output 9 (in_pri: 0, out_pri: 0).
10 | network_0/router_level1_26/vc_allocator | Input requests = [ 0 -> [ 36@0 37@0 38@0 39@0 ]  8 -> [ 36@0 37@0 38@0 39@0 ]  16 -> [ 36@0 37@0 38@0 39@0 ]  24 -> [ 32@0 33@0 34@0 35@0 ]  ], output requests = [ 32 -> [ 24@0 ]  33 -> [ 24@0 ]  34 -> [ 24@0 ]  35 -> [ 24@0 ]  36 -> [ 0@0 8@0 16@0 ]  37 -> [ 0@0 8@0 16@0 ]  38 -> [ 0@0 8@0 16@0 ]  39 -> [ 0@0 8@0 16@0 ]  ].
10 | network_0/router_level1_26/vc_allocator | Input grants = [ 0 -> 36  24 -> 32  ], output grants = [ 32 -> 24  36 -> 0  ].
10 | network_0/router_level1_26 | Assigning VC 0 at output 9 to VC 0 at input 0.
10 | network_0/router_level1_26 | Completed VC allocation for VC 0 at input 0 (front: 8).
10 | network_0/router_level1_26 |   Acquiring assigned VC 0 at output 9.
10 | network_0/router_level1_26/buf_0/vc_0 | Changing state from vc_alloc to active.
10 | network_0/router_level1_28 | Adding flit 5 to VC 0 at input 0 (state: idle, empty).
10 | network_0/router_level1_28 | Using precomputed lookahead routing information for VC 0 at input 0 (front: 5).
10 | network_0/router_level1_28/buf_0/vc_0 | Changing state from idle to vc_alloc.
10 | network_0/router_level1_28 | Beginning VC allocation for VC 0 at input 0 (front: 5).
10 | network_0/router_level1_28 |   Requesting VC 0 at output 8 (in_pri: 0, out_pri: 0).
10 | network_0/router_level1_28 |   Requesting VC 1 at output 8 (in_pri: 0, out_pri: 0).
10 | network_0/router_level1_28 |   Requesting VC 2 at output 8 (in_pri: 0, out_pri: 0).
10 | network_0/router_level1_28 |   Requesting VC 3 at output 8 (in_pri: 0, out_pri: 0).
10 | network_0/router_level1_28/vc_allocator | Input requests = [ 0 -> [ 32@0 33@0 34@0 35@0 ]  4 -> [ 32@0 33@0 34@0 35@0 ]  ], output requests = [ 32 -> [ 0@0 4@0 ]  33 -> [ 0@0 4@0 ]  34 -> [ 0@0 4@0 ]  35 -> [ 0@0 4@0 ]  ].
10 | network_0/router_level1_28/vc_allocator | Input grants = [ 0 -> 32  ], output grants = [ 32 -> 0  ].
10 | network_0/router_level1_28 | Assigning VC 0 at output 8 to VC 0 at input 0.
10 | network_0/router_level1_28 | Completed VC allocation for VC 0 at input 0 (front: 5).
10 | network_0/router_level1_28 |   Acquiring assigned VC 0 at output 8.
10 | network_0/router_level1_28/buf_0/vc_0 | Changing state from vc_alloc to active.
10 | network_0/router_level1_35 | Adding flit 7 to VC 0 at input 0 (state: idle, empty).
10 | network_0/router_level1_35 | Using precomputed lookahead routing information for VC 0 at input 0 (front: 7).
10 | network_0/router_level1_35/buf_0/vc_0 | Changing state from idle to vc_alloc.
10 | network_0/router_level1_35 | Beginning VC allocation for VC 0 at input 0 (front: 7).
10 | network_0/router_level1_35 |   Requesting VC 0 at output 8 (in_pri: 0, out_pri: 0).
10 | network_0/router_level1_35 |   Requesting VC 1 at output 8 (in_pri: 0, out_pri: 0).
10 | network_0/router_level1_35 |   Requesting VC 2 at output 8 (in_pri: 0, out_pri: 0).
10 | network_0/router_level1_35 |   Requesting VC 3 at output 8 (in_pri: 0, out_pri: 0).
10 | network_0/router_level1_35/vc_allocator | Input requests = [ 0 -> [ 32@0 33@0 34@0 35@0 ]  4 -> [ 36@0 37@0 38@0 39@0 ]  ], output requests = [ 32 -> [ 0@0 ]  33 -> [ 0@0 ]  34 -> [ 0@0 ]  35 -> [ 0@0 ]  36 -> [ 4@0 ]  37 -> [ 4@0 ]  38 -> [ 4@0 ]  39 -> [ 4@0 ]  ].
10 | network_0/router_level1_35/vc_allocator | Input grants = [ 0 -> 32  4 -> 36  ], output grants = [ 32 -> 0  36 -> 4  ].
10 | network_0/router_level1_35 | Assigning VC 0 at output 8 to VC 0 at input 0.
10 | network_0/router_level1_35 | Completed VC allocation for VC 0 at input 0 (front: 7).
10 | network_0/router_level1_35 |   Acquiring assigned VC 0 at output 8.
10 | network_0/router_level1_35/buf_0/vc_0 | Changing state from vc_alloc to active.
10 | network_0/router_level1_56 | Adding flit 9 to VC 0 at input 0 (state: idle, empty).
10 | network_0/router_level1_56 | Using precomputed lookahead routing information for VC 0 at input 0 (front: 9).
10 | network_0/router_level1_56/buf_0/vc_0 | Changing state from idle to vc_alloc.
10 | network_0/router_level1_56 | Beginning VC allocation for VC 0 at input 0 (front: 9).
10 | network_0/router_level1_56 |   Requesting VC 0 at output 7 (in_pri: 0, out_pri: 0).
10 | network_0/router_level1_56 |   Requesting VC 1 at output 7 (in_pri: 0, out_pri: 0).
10 | network_0/router_level1_56 |   Requesting VC 2 at output 7 (in_pri: 0, out_pri: 0).
10 | network_0/router_level1_56 |   Requesting VC 3 at output 7 (in_pri: 0, out_pri: 0).
10 | network_0/router_level1_56/vc_allocator | Input requests = [ 0 -> [ 28@0 29@0 30@0 31@0 ]  20 -> [ 32@0 33@0 34@0 35@0 ]  ], output requests = [ 28 -> [ 0@0 ]  29 -> [ 0@0 ]  30 -> [ 0@0 ]  31 -> [ 0@0 ]  32 -> [ 20@0 ]  33 -> [ 20@0 ]  34 -> [ 20@0 ]  35 -> [ 20@0 ]  ].
10 | network_0/router_level1_56/vc_allocator | Input grants = [ 0 -> 28  20 -> 32  ], output grants = [ 28 -> 0  32 -> 20  ].
10 | network_0/router_level1_56 | Assigning VC 0 at output 7 to VC 0 at input 0.
10 | network_0/router_level1_56 | Completed VC allocation for VC 0 at input 0 (front: 9).
10 | network_0/router_level1_56 |   Acquiring assigned VC 0 at output 7.
10 | network_0/router_level1_56/buf_0/vc_0 | Changing state from vc_alloc to active.
10 | network_0/router_level1_63 | Adding flit 1 to VC 0 at input 0 (state: idle, empty).
10 | network_0/router_level1_63 | Using precomputed lookahead routing information for VC 0 at input 0 (front: 1).
10 | network_0/router_level1_63/buf_0/vc_0 | Changing state from idle to vc_alloc.
10 | network_0/router_level1_63 | Beginning VC allocation for VC 0 at input 0 (front: 1).
10 | network_0/router_level1_63 |   Requesting VC 0 at output 8 (in_pri: 0, out_pri: 0).
10 | network_0/router_level1_63 |   Requesting VC 1 at output 8 (in_pri: 0, out_pri: 0).
10 | network_0/router_level1_63 |   Requesting VC 2 at output 8 (in_pri: 0, out_pri: 0).
10 | network_0/router_level1_63 |   Requesting VC 3 at output 8 (in_pri: 0, out_pri: 0).
10 | network_0/router_level1_63/vc_allocator | Input requests = [ 0 -> [ 32@0 33@0 34@0 35@0 ]  4 -> [ 36@0 37@0 38@0 39@0 ]  24 -> [ 32@0 33@0 34@0 35@0 ]  ], output requests = [ 32 -> [ 0@0 24@0 ]  33 -> [ 0@0 24@0 ]  34 -> [ 0@0 24@0 ]  35 -> [ 0@0 24@0 ]  36 -> [ 4@0 ]  37 -> [ 4@0 ]  38 -> [ 4@0 ]  39 -> [ 4@0 ]  ].
10 | network_0/router_level1_63/vc_allocator | Input grants = [ 0 -> 32  4 -> 36  ], output grants = [ 32 -> 0  36 -> 4  ].
10 | network_0/router_level1_63 | Assigning VC 0 at output 8 to VC 0 at input 0.
10 | network_0/router_level1_63 | Completed VC allocation for VC 0 at input 0 (front: 1).
10 | network_0/router_level1_63 |   Acquiring assigned VC 0 at output 8.
10 | network_0/router_level1_63/buf_0/vc_0 | Changing state from vc_alloc to active.
10 | network_0/router_level2_7 | Adding flit 3 to VC 0 at input 1 (state: idle, empty).
10 | network_0/router_level2_7 | Using precomputed lookahead routing information for VC 0 at input 1 (front: 3).
10 | network_0/router_level2_7/buf_1/vc_0 | Changing state from idle to vc_alloc.
10 | network_0/router_level2_7 | Beginning VC allocation for VC 0 at input 1 (front: 3).
10 | network_0/router_level2_7 |   Requesting VC 0 at output 8 (in_pri: 0, out_pri: 0).
10 | network_0/router_level2_7 |   VC 1 at output 8 is in use by VC 0 at input 3 (front flit: 4870).
10 | network_0/router_level2_7 |   VC 2 at output 8 is in use by VC 0 at input 5 (front flit: 4875).
10 | network_0/router_level2_7 |   Requesting VC 3 at output 8 (in_pri: 0, out_pri: 0).
10 | network_0/router_level2_7/vc_allocator | Input requests = [ 4 -> [ 32@0 35@0 ]  10 -> [ 60@0 61@0 62@0 63@0 ]  16 -> [ 56@0 57@0 58@0 59@0 ]  21 -> [ 49@0 50@0 51@0 ]  28 -> [ 49@0 50@0 51@0 ]  ], output requests = [ 32 -> [ 4@0 ]  35 -> [ 4@0 ]  49 -> [ 21@0 28@0 ]  50 -> [ 21@0 28@0 ]  51 -> [ 21@0 28@0 ]  56 -> [ 16@0 ]  57 -> [ 16@0 ]  58 -> [ 16@0 ]  59 -> [ 16@0 ]  60 -> [ 10@0 ]  61 -> [ 10@0 ]  62 -> [ 10@0 ]  63 -> [ 10@0 ]  ].
10 | network_0/router_level2_7/vc_allocator | Input grants = [ 4 -> 32  10 -> 60  16 -> 56  21 -> 49  ], output grants = [ 32 -> 4  49 -> 21  56 -> 16  60 -> 10  ].
10 | network_0/router_level2_7 | Assigning VC 0 at output 8 to VC 0 at input 1.
10 | network_0/router_level2_7 | Completed VC allocation for VC 0 at input 1 (front: 3).
10 | network_0/router_level2_7 |   Acquiring assigned VC 0 at output 8.
10 | network_0/router_level2_7/buf_1/vc_0 | Changing state from vc_alloc to active.
10 | network_0/network_0_fchan_12291 | Completed channel traversal for flit 10.
11 | network_0/router_level1_24 | Received flit 10 from channel at input 0.
11 | network_0/router_level1_3 | Beginning switch allocation for VC 0 at input 0 (front: 4).
11 | network_0/router_level1_3 |   Requesting output 8.0 (non-spec, pri: 0).
11 | network_0/router_level1_3/sw_allocator | Input requests = [ 0 -> [ 8@0 ]  5 -> [ 9@0 ]  ], output requests = [ 8 -> [ 0@0 ]  9 -> [ 5@0 ]  ].
11 | network_0/router_level1_3/sw_allocator | Input grants = [ 0 -> 8  5 -> 9  ], output grants = [ 8 -> 0  9 -> 5  ].
11 | network_0/router_level1_3 | Assigning output 8.0 to VC 0 at input 0.0.
11 | network_0/router_level1_3 | Completed switch allocation for VC 0 at input 0 (front: 4).
11 | network_0/router_level1_3 |   Scheduling switch connection from input 0.0 to output 8.0.
11 | network_0/router_level1_3 | Updating lookahead routing information for flit 4.
11 | network_0/router_level1_12 | Beginning switch allocation for VC 0 at input 0 (front: 6).
11 | network_0/router_level1_12 |   Requesting output 9.0 (non-spec, pri: 0).
11 | network_0/router_level1_12/sw_allocator | Input requests = [ 0 -> [ 9@0 ]  ], output requests = [ 9 -> [ 0@0 ]  ].
11 | network_0/router_level1_12/sw_allocator | Input grants = [ 0 -> 9  ], output grants = [ 9 -> 0  ].
11 | network_0/router_level1_12 | Assigning output 9.0 to VC 0 at input 0.0.
11 | network_0/router_level1_12 | Completed switch allocation for VC 0 at input 0 (front: 6).
11 | network_0/router_level1_12 |   Scheduling switch connection from input 0.0 to output 9.0.
11 | network_0/router_level1_12 | Updating lookahead routing information for flit 6.
11 | network_0/router_level1_24 | Adding flit 10 to VC 0 at input 0 (state: idle, empty).
11 | network_0/router_level1_24 | Using precomputed lookahead routing information for VC 0 at input 0 (front: 10).
11 | network_0/router_level1_24/buf_0/vc_0 | Changing state from idle to vc_alloc.
11 | network_0/router_level1_24 | Beginning VC allocation for VC 0 at input 0 (front: 10).
11 | network_0/router_level1_24 |   VC 0 at output 8 is in use by VC 0 at input 7 (front flit: 196).
11 | network_0/router_level1_24 |   Requesting VC 1 at output 8 (in_pri: 0, out_pri: 0).
11 | network_0/router_level1_24 |   Requesting VC 2 at output 8 (in_pri: 0, out_pri: 0).
11 | network_0/router_level1_24 |   Requesting VC 3 at output 8 (in_pri: 0, out_pri: 0).
11 | network_0/router_level1_24/vc_allocator | Input requests = [ 0 -> [ 33@0 34@0 35@0 ]  8 -> [ 33@0 34@0 35@0 ]  13 -> [ 33@0 34@0 35@0 ]  24 -> [ 37@0 38@0 39@0 ]  29 -> [ 37@0 38@0 39@0 ]  ], output requests = [ 33 -> [ 0@0 8@0 13@0 ]  34 -> [ 0@0 8@0 13@0 ]  35 -> [ 0@0 8@0 13@0 ]  37 -> [ 24@0 29@0 ]  38 -> [ 24@0 29@0 ]  39 -> [ 24@0 29@0 ]  ].
11 | network_0/router_level1_24/vc_allocator | Input grants = [ 0 -> 33  24 -> 37  ], output grants = [ 33 -> 0  37 -> 24  ].
11 | network_0/router_level1_24 | Assigning VC 1 at output 8 to VC 0 at input 0.
11 | network_0/router_level1_24 | Completed VC allocation for VC 0 at input 0 (front: 10).
11 | network_0/router_level1_24 |   Acquiring assigned VC 1 at output 8.
11 | network_0/router_level1_24/buf_0/vc_0 | Changing state from vc_alloc to active.
11 | network_0/router_level1_25 | Beginning switch allocation for VC 0 at input 0 (front: 2).
11 | network_0/router_level1_25 |   Requesting output 9.0 (non-spec, pri: 0).
11 | network_0/router_level1_25/sw_allocator | Input requests = [ 0 -> [ 9@0 ]  5 -> [ 8@0 ]  ], output requests = [ 8 -> [ 5@0 ]  9 -> [ 0@0 ]  ].
11 | network_0/router_level1_25/sw_allocator | Input grants = [ 0 -> 9  5 -> 8  ], output grants = [ 8 -> 5  9 -> 0  ].
11 | network_0/router_level1_25 | Assigning output 9.0 to VC 0 at input 0.0.
11 | network_0/router_level1_25 | Completed switch allocation for VC 0 at input 0 (front: 2).
11 | network_0/router_level1_25 |   Scheduling switch connection from input 0.0 to output 9.0.
11 | network_0/router_level1_25 | Updating lookahead routing information for flit 2.
11 | network_0/router_level1_26 | Beginning switch allocation for VC 0 at input 0 (front: 8).
11 | network_0/router_level1_26 |   Requesting output 9.0 (non-spec, pri: 0).
11 | network_0/router_level1_26/sw_allocator | Input requests = [ 0 -> [ 9@0 ]  6 -> [ 8@0 ]  ], output requests = [ 8 -> [ 6@0 ]  9 -> [ 0@0 ]  ].
11 | network_0/router_level1_26/sw_allocator | Input grants = [ 0 -> 9  6 -> 8  ], output grants = [ 8 -> 6  9 -> 0  ].
11 | network_0/router_level1_26 | Assigning output 9.0 to VC 0 at input 0.0.
11 | network_0/router_level1_26 | Completed switch allocation for VC 0 at input 0 (front: 8).
[...]
27 | network_0/router_level3_485/sw_allocator | Input grants = [ 0 -> 14  2 -> 10  6 -> 11  7 -> 12  9 -> 2  12 -> 6  ], output grants = [ 2 -> 9  6 -> 12  10 -> 2  11 -> 6  12 -> 7  14 -> 0  ].
27 | network_0/router_level3_485 | Assigning output 6.0 to VC 0 at input 12.0.
27 | network_0/router_level3_485 | Completed switch allocation for VC 0 at input 12 (front: 5).
27 | network_0/router_level3_485 |   Scheduling switch connection from input 12.0 to output 6.0.
28 | network_0/router_level1_135 | Beginning switch allocation for VC 3 at input 8 (front: 3).
28 | network_0/router_level1_135 |   Requesting output 2.0 (non-spec, pri: 0).
28 | network_0/router_level1_135/sw_allocator | Input requests = [ 1 -> [ 8@0 9@0 ]  2 -> [ 9@0 ]  3 -> [ 8@0 ]  4 -> [ 8@0 ]  8 -> [ 2@0 4@0 ]  ], output requests = [ 2 -> [ 8@0 ]  4 -> [ 8@0 ]  8 -> [ 1@0 3@0 4@0 ]  9 -> [ 1@0 2@0 ]  ].
28 | network_0/router_level1_135/sw_allocator | Input grants = [ 1 -> 9  4 -> 8  8 -> 2  ], output grants = [ 2 -> 8  8 -> 4  9 -> 1  ].
28 | network_0/router_level1_135 | Assigning output 2.0 to VC 3 at input 8.0.
28 | network_0/router_level1_135 | Completed switch allocation for VC 3 at input 8 (front: 3).
28 | network_0/router_level1_135 |   Scheduling switch connection from input 8.0 to output 2.0.
28 | network_0/router_level1_135 | Updating lookahead routing information for flit 3.
28 | network_0/router_level3_129 | Beginning switch allocation for VC 0 at input 8 (front: 10).
28 | network_0/router_level3_129 |   Requesting output 6.0 (non-spec, pri: 0).
28 | network_0/router_level3_129/sw_allocator | Input requests = [ 0 -> [ 8@0 ]  1 -> [ 12@0 ]  2 -> [ 10@0 ]  4 -> [ 15@0 ]  5 -> [ 14@0 ]  8 -> [ 6@0 ]  9 -> [ 2@0 ]  ], output requests = [ 2 -> [ 9@0 ]  6 -> [ 8@0 ]  8 -> [ 0@0 ]  10 -> [ 2@0 ]  12 -> [ 1@0 ]  14 -> [ 5@0 ]  15 -> [ 4@0 ]  ].
28 | network_0/router_level3_129/sw_allocator | Input grants = [ 0 -> 8  1 -> 12  2 -> 10  4 -> 15  5 -> 14  8 -> 6  9 -> 2  ], output grants = [ 2 -> 9  6 -> 8  8 -> 0  10 -> 2  12 -> 1  14 -> 5  15 -> 4  ].
28 | network_0/router_level3_129 | Assigning output 6.0 to VC 0 at input 8.0.
28 | network_0/router_level3_129 | Completed switch allocation for VC 0 at input 8 (front: 10).
28 | network_0/router_level3_129 |   Scheduling switch connection from input 8.0 to output 6.0.
28 | network_0/router_level3_171 | Beginning crossbar traversal for flit 6 from input 12.0 to output 2.0.
28 | network_0/router_level3_171 | Completed crossbar traversal for flit 6 from input 12.0 to output 2.0.
28 | network_0/router_level3_171 | Buffering flit 6 at output 2.
28 | network_0/router_level3_222 | Beginning crossbar traversal for flit 2 from input 9.0 to output 3.0.
28 | network_0/router_level3_222 | Completed crossbar traversal for flit 2 from input 9.0 to output 3.0.
28 | network_0/router_level3_222 | Buffering flit 2 at output 3.
28 | network_0/router_level3_224 | Beginning crossbar traversal for flit 8 from input 10.0 to output 3.0.
28 | network_0/router_level3_224 | Completed crossbar traversal for flit 8 from input 10.0 to output 3.0.
28 | network_0/router_level3_224 | Buffering flit 8 at output 3.
28 | network_0/router_level3_226 | Beginning crossbar traversal for flit 7 from input 11.0 to output 2.0.
28 | network_0/router_level3_226 | Completed crossbar traversal for flit 7 from input 11.0 to output 2.0.
28 | network_0/router_level3_226 | Buffering flit 7 at output 2.
28 | network_0/router_level3_247 | Beginning switch allocation for VC 1 at input 15 (front: 1).
28 | network_0/router_level3_247 |   Requesting output 2.0 (non-spec, pri: 0).
28 | network_0/router_level3_247/sw_allocator | Input requests = [ 2 -> [ 8@0 ]  4 -> [ 15@0 ]  5 -> [ 9@0 ]  9 -> [ 0@0 ]  15 -> [ 2@0 5@0 ]  ], output requests = [ 0 -> [ 9@0 ]  2 -> [ 15@0 ]  5 -> [ 15@0 ]  8 -> [ 2@0 ]  9 -> [ 5@0 ]  15 -> [ 4@0 ]  ].
28 | network_0/router_level3_247/sw_allocator | Input grants = [ 2 -> 8  4 -> 15  5 -> 9  9 -> 0  15 -> 2  ], output grants = [ 0 -> 9  2 -> 15  8 -> 2  9 -> 5  15 -> 4  ].
28 | network_0/router_level3_247 | Assigning output 2.0 to VC 1 at input 15.0.
28 | network_0/router_level3_247 | Completed switch allocation for VC 1 at input 15 (front: 1).
28 | network_0/router_level3_247 |   Scheduling switch connection from input 15.0 to output 2.0.
28 | network_0/router_level3_305 | Beginning crossbar traversal for flit 4 from input 11.0 to output 0.0.
28 | network_0/router_level3_305 | Completed crossbar traversal for flit 4 from input 11.0 to output 0.0.
28 | network_0/router_level3_305 | Buffering flit 4 at output 0.
28 | network_0/router_level3_485 | Beginning crossbar traversal for flit 5 from input 12.0 to output 6.0.
28 | network_0/router_level3_485 | Completed crossbar traversal for flit 5 from input 12.0 to output 6.0.
28 | network_0/router_level3_485 | Buffering flit 5 at output 6.
28 | network_0/router_level3_171 | Sending flit 6 to channel at output 2.
28 | network_0/router_level3_222 | Sending flit 2 to channel at output 3.
28 | network_0/router_level3_224 | Sending flit 8 to channel at output 3.
28 | network_0/router_level3_226 | Sending flit 7 to channel at output 2.
28 | network_0/router_level3_305 | Sending flit 4 to channel at output 0.
28 | network_0/router_level3_485 | Sending flit 5 to channel at output 6.
29 | network_0/network_0_fchan_egress1370 | Beginning channel traversal for flit 6 with delay 1.
29 | network_0/network_0_fchan_egress1779 | Beginning channel traversal for flit 2 with delay 1.
29 | network_0/network_0_fchan_egress1795 | Beginning channel traversal for flit 8 with delay 1.
29 | network_0/network_0_fchan_egress1810 | Beginning channel traversal for flit 7 with delay 1.
29 | network_0/network_0_fchan_egress2440 | Beginning channel traversal for flit 4 with delay 1.
29 | network_0/network_0_fchan_egress3886 | Beginning channel traversal for flit 5 with delay 1.
29 | network_0/router_level1_135 | Beginning crossbar traversal for flit 3 from input 8.0 to output 2.0.
29 | network_0/router_level1_135 | Completed crossbar traversal for flit 3 from input 8.0 to output 2.0.
29 | network_0/router_level1_135 | Buffering flit 3 at output 2.
29 | network_0/router_level3_129 | Beginning crossbar traversal for flit 10 from input 8.0 to output 6.0.
29 | network_0/router_level3_129 | Completed crossbar traversal for flit 10 from input 8.0 to output 6.0.
29 | network_0/router_level3_129 | Buffering flit 10 at output 6.
29 | network_0/router_level3_247 | Beginning crossbar traversal for flit 1 from input 15.0 to output 2.0.
29 | network_0/router_level3_247 | Completed crossbar traversal for flit 1 from input 15.0 to output 2.0.
29 | network_0/router_level3_247 | Buffering flit 1 at output 2.
29 | network_0/network_0_fchan_egress1370 | Completed channel traversal for flit 6.
29 | network_0/network_0_fchan_egress1779 | Completed channel traversal for flit 2.
29 | network_0/network_0_fchan_egress1795 | Completed channel traversal for flit 8.
29 | network_0/network_0_fchan_egress1810 | Completed channel traversal for flit 7.
29 | network_0/network_0_fchan_egress2440 | Completed channel traversal for flit 4.
29 | network_0/network_0_fchan_egress3886 | Completed channel traversal for flit 5.
29 | network_0/router_level1_135 | Sending flit 3 to channel at output 2.
29 | network_0/router_level3_129 | Sending flit 10 to channel at output 6.
29 | network_0/router_level3_247 | Sending flit 1 to channel at output 2.
30 | node1370 | Ejecting flit 6 (packet 6) from VC 0.
30 | node1779 | Ejecting flit 2 (packet 2) from VC 0.
30 | node1795 | Ejecting flit 8 (packet 8) from VC 0.
30 | node1810 | Ejecting flit 7 (packet 7) from VC 0.
30 | node2440 | Ejecting flit 4 (packet 4) from VC 0.
30 | node3886 | Ejecting flit 5 (packet 5) from VC 0.
30 | network_0/network_0_fchan_egress1038 | Beginning channel traversal for flit 10 with delay 1.
30 | network_0/network_0_fchan_egress1978 | Beginning channel traversal for flit 1 with delay 1.
30 | network_0/network_0_fchan_9274 | Beginning channel traversal for flit 3 with delay 1.
30 | node1370 | Injecting credit for VC 0 into subnet 0.
30 | node1370 | Retiring flit 6 (packet 6, src = 18, dest = 1370, hops = 7, flat = 30).
30 | node1370 | Retiring packet 6 (plat = 30, nlat = 30, frag = 0, src = 18, dest = 1370).
30 | node1779 | Injecting credit for VC 0 into subnet 0.
30 | node1779 | Retiring flit 2 (packet 2, src = 12, dest = 1779, hops = 7, flat = 30).
30 | node1779 | Retiring packet 2 (plat = 30, nlat = 30, frag = 0, src = 12, dest = 1779).
30 | node1795 | Injecting credit for VC 0 into subnet 0.
30 | node1795 | Retiring flit 8 (packet 8, src = 20, dest = 1795, hops = 7, flat = 30).
30 | node1795 | Retiring packet 8 (plat = 30, nlat = 30, frag = 0, src = 20, dest = 1795).
30 | node1810 | Injecting credit for VC 0 into subnet 0.
30 | node1810 | Retiring flit 7 (packet 7, src = 19, dest = 1810, hops = 7, flat = 30).
30 | node1810 | Retiring packet 7 (plat = 30, nlat = 30, frag = 0, src = 19, dest = 1810).
30 | node2440 | Injecting credit for VC 0 into subnet 0.
30 | node2440 | Retiring flit 4 (packet 4, src = 14, dest = 2440, hops = 7, flat = 30).
30 | node2440 | Retiring packet 4 (plat = 30, nlat = 30, frag = 0, src = 14, dest = 2440).
30 | node3886 | Injecting credit for VC 0 into subnet 0.
30 | node3886 | Retiring flit 5 (packet 5, src = 15, dest = 3886, hops = 7, flat = 30).
30 | node3886 | Retiring packet 5 (plat = 30, nlat = 30, frag = 0, src = 15, dest = 3886).
30 | network_0/network_0_fchan_egress1038 | Completed channel traversal for flit 10.
30 | network_0/network_0_fchan_egress1978 | Completed channel traversal for flit 1.
30 | network_0/network_0_fchan_9274 | Completed channel traversal for flit 3.
31 | node1038 | Ejecting flit 10 (packet 10) from VC 1.
31 | node1978 | Ejecting flit 1 (packet 1) from VC 0.
31 | network_0/router_level2_151 | Received flit 3 from channel at input 8.
31 | node1038 | Injecting credit for VC 1 into subnet 0.
31 | node1038 | Retiring flit 10 (packet 10, src = 31, dest = 1038, hops = 7, flat = 31).
31 | node1038 | Retiring packet 10 (plat = 31, nlat = 31, frag = 0, src = 31, dest = 1038).
31 | node1978 | Injecting credit for VC 0 into subnet 0.
31 | node1978 | Retiring flit 1 (packet 1, src = 11, dest = 1978, hops = 7, flat = 31).
31 | node1978 | Retiring packet 1 (plat = 31, nlat = 31, frag = 0, src = 11, dest = 1978).
31 | network_0/router_level2_151 | Adding flit 3 to VC 0 at input 8 (state: idle, empty).
31 | network_0/router_level2_151 | Using precomputed lookahead routing information for VC 0 at input 8 (front: 3).
31 | network_0/router_level2_151/buf_8/vc_0 | Changing state from idle to vc_alloc.
31 | network_0/router_level2_151 | Beginning VC allocation for VC 0 at input 8 (front: 3).
31 | network_0/router_level2_151 |   VC 0 at output 7 is in use by VC 0 at input 15 (front flit: 144).
31 | network_0/router_level2_151 |   Requesting VC 1 at output 7 (in_pri: 0, out_pri: 0).
31 | network_0/router_level2_151 |   Requesting VC 2 at output 7 (in_pri: 0, out_pri: 0).
31 | network_0/router_level2_151 |   Requesting VC 3 at output 7 (in_pri: 0, out_pri: 0).
31 | network_0/router_level2_151/vc_allocator | Input requests = [ 4 -> [ 57@0 58@0 59@0 ]  5 -> [ 36@0 37@0 38@0 39@0 ]  16 -> [ 57@0 58@0 59@0 ]  17 -> [ 57@0 58@0 59@0 ]  20 -> [ 60@0 61@0 62@0 63@0 ]  32 -> [ 29@0 30@0 31@0 ]  61 -> [ 0@0 1@0 2@0 3@0 ]  ], output requests = [ 0 -> [ 61@0 ]  1 -> [ 61@0 ]  2 -> [ 61@0 ]  3 -> [ 61@0 ]  29 -> [ 32@0 ]  30 -> [ 32@0 ]  31 -> [ 32@0 ]  36 -> [ 5@0 ]  37 -> [ 5@0 ]  38 -> [ 5@0 ]  39 -> [ 5@0 ]  57 -> [ 4@0 16@0 17@0 ]  58 -> [ 4@0 16@0 17@0 ]  59 -> [ 4@0 16@0 17@0 ]  60 -> [ 20@0 ]  61 -> [ 20@0 ]  62 -> [ 20@0 ]  63 -> [ 20@0 ]  ].
31 | network_0/router_level2_151/vc_allocator | Input grants = [ 4 -> 57  5 -> 36  20 -> 60  32 -> 29  61 -> 0  ], output grants = [ 0 -> 61  29 -> 32  36 -> 5  57 -> 4  60 -> 20  ].
31 | network_0/router_level2_151 | Assigning VC 1 at output 7 to VC 0 at input 8.
31 | network_0/router_level2_151 | Completed VC allocation for VC 0 at input 8 (front: 3).
31 | network_0/router_level2_151 |   Acquiring assigned VC 1 at output 7.
31 | network_0/router_level2_151/buf_8/vc_0 | Changing state from vc_alloc to active.
32 | network_0/router_level2_151 | Beginning switch allocation for VC 0 at input 8 (front: 3).
32 | network_0/router_level2_151 |   Requesting output 7.0 (non-spec, pri: 0).
32 | network_0/router_level2_151/sw_allocator | Input requests = [ 1 -> [ 9@0 14@0 ]  5 -> [ 15@0 ]  8 -> [ 7@0 ]  15 -> [ 0@0 ]  ], output requests = [ 0 -> [ 15@0 ]  7 -> [ 8@0 ]  9 -> [ 1@0 ]  14 -> [ 1@0 ]  15 -> [ 5@0 ]  ].
32 | network_0/router_level2_151/sw_allocator | Input grants = [ 1 -> 14  5 -> 15  8 -> 7  15 -> 0  ], output grants = [ 0 -> 15  7 -> 8  14 -> 1  15 -> 5  ].
32 | network_0/router_level2_151 | Assigning output 7.0 to VC 0 at input 8.0.
32 | network_0/router_level2_151 | Completed switch allocation for VC 0 at input 8 (front: 3).
32 | network_0/router_level2_151 |   Scheduling switch connection from input 8.0 to output 7.0.
32 | network_0/router_level2_151 | Updating lookahead routing information for flit 3.
33 | network_0/router_level2_151 | Beginning crossbar traversal for flit 3 from input 8.0 to output 7.0.
33 | network_0/router_level2_151 | Completed crossbar traversal for flit 3 from input 8.0 to output 7.0.
33 | network_0/router_level2_151 | Buffering flit 3 at output 7.
33 | network_0/router_level2_151 | Sending flit 3 to channel at output 7.
34 | network_0/network_0_fchan_17599 | Beginning channel traversal for flit 3 with delay 1.
34 | network_0/network_0_fchan_17599 | Completed channel traversal for flit 3.
35 | network_0/router_level3_151 | Received flit 3 from channel at input 15.
35 | network_0/router_level3_151 | Adding flit 3 to VC 1 at input 15 (state: idle, empty).
35 | network_0/router_level3_151 | Using precomputed lookahead routing information for VC 1 at input 15 (front: 3).
35 | network_0/router_level3_151/buf_15/vc_1 | Changing state from idle to vc_alloc.
35 | network_0/router_level3_151 | Beginning VC allocation for VC 1 at input 15 (front: 3).
35 | network_0/router_level3_151 |   Requesting VC 0 at output 1 (in_pri: 0, out_pri: 0).
35 | network_0/router_level3_151 |   Requesting VC 1 at output 1 (in_pri: 0, out_pri: 0).
35 | network_0/router_level3_151 |   Requesting VC 2 at output 1 (in_pri: 0, out_pri: 0).
35 | network_0/router_level3_151 |   Requesting VC 3 at output 1 (in_pri: 0, out_pri: 0).
35 | network_0/router_level3_151/vc_allocator | Input requests = [ 3 -> [ 32@0 33@0 34@0 35@0 ]  7 -> [ 52@0 53@0 54@0 55@0 ]  17 -> [ 32@0 33@0 34@0 35@0 ]  21 -> [ 37@0 38@0 39@0 ]  27 -> [ 58@0 59@0 ]  28 -> [ 40@0 41@0 42@0 43@0 ]  32 -> [ 20@0 21@0 22@0 23@0 ]  40 -> [ 28@0 29@0 30@0 31@0 ]  49 -> [ 0@0 2@0 3@0 ]  56 -> [ 20@0 21@0 22@0 23@0 ]  61 -> [ 4@0 5@0 6@0 7@0 ]  ], output requests = [ 0 -> [ 49@0 ]  2 -> [ 49@0 ]  3 -> [ 49@0 ]  4 -> [ 61@0 ]  5 -> [ 61@0 ]  6 -> [ 61@0 ]  7 -> [ 61@0 ]  20 -> [ 32@0 56@0 ]  21 -> [ 32@0 56@0 ]  22 -> [ 32@0 56@0 ]  23 -> [ 32@0 56@0 ]  28 -> [ 40@0 ]  29 -> [ 40@0 ]  30 -> [ 40@0 ]  31 -> [ 40@0 ]  32 -> [ 3@0 17@0 ]  33 -> [ 3@0 17@0 ]  34 -> [ 3@0 17@0 ]  35 -> [ 3@0 17@0 ]  37 -> [ 21@0 ]  38 -> [ 21@0 ]  39 -> [ 21@0 ]  40 -> [ 28@0 ]  41 -> [ 28@0 ]  42 -> [ 28@0 ]  43 -> [ 28@0 ]  52 -> [ 7@0 ]  53 -> [ 7@0 ]  54 -> [ 7@0 ]  55 -> [ 7@0 ]  58 -> [ 27@0 ]  59 -> [ 27@0 ]  ].
35 | network_0/router_level3_151/vc_allocator | Input grants = [ 3 -> 32  7 -> 52  21 -> 37  27 -> 58  28 -> 40  32 -> 20  40 -> 28  49 -> 0  56 -> 21  61 -> 4  ], output grants = [ 0 -> 49  4 -> 61  20 -> 32  21 -> 56  28 -> 40  32 -> 3  37 -> 21  40 -> 28  52 -> 7  58 -> 27  ].
35 | network_0/router_level3_151 | Assigning VC 0 at output 1 to VC 1 at input 15.
35 | network_0/router_level3_151 | Completed VC allocation for VC 1 at input 15 (front: 3).
35 | network_0/router_level3_151 |   Acquiring assigned VC 0 at output 1.
35 | network_0/router_level3_151/buf_15/vc_1 | Changing state from vc_alloc to active.
36 | network_0/router_level3_151 | Beginning switch allocation for VC 1 at input 15 (front: 3).
36 | network_0/router_level3_151 |   Requesting output 1.0 (non-spec, pri: 0).
36 | network_0/router_level3_151/sw_allocator | Input requests = [ 0 -> [ 8@0 ]  1 -> [ 13@0 ]  4 -> [ 14@0 ]  5 -> [ 9@0 ]  6 -> [ 14@0 ]  7 -> [ 10@0 ]  8 -> [ 5@0 ]  10 -> [ 7@0 ]  12 -> [ 0@0 ]  14 -> [ 5@0 ]  15 -> [ 1@0 ]  ], output requests = [ 0 -> [ 12@0 ]  1 -> [ 15@0 ]  5 -> [ 8@0 14@0 ]  7 -> [ 10@0 ]  8 -> [ 0@0 ]  9 -> [ 5@0 ]  10 -> [ 7@0 ]  13 -> [ 1@0 ]  14 -> [ 4@0 6@0 ]  ].
36 | network_0/router_level3_151/sw_allocator | Input grants = [ 0 -> 8  1 -> 13  5 -> 9  6 -> 14  7 -> 10  10 -> 7  12 -> 0  14 -> 5  15 -> 1  ], output grants = [ 0 -> 12  1 -> 15  5 -> 14  7 -> 10  8 -> 0  9 -> 5  10 -> 7  13 -> 1  14 -> 6  ].
36 | network_0/router_level3_151 | Assigning output 1.0 to VC 1 at input 15.0.
36 | network_0/router_level3_151 | Completed switch allocation for VC 1 at input 15 (front: 3).
36 | network_0/router_level3_151 |   Scheduling switch connection from input 15.0 to output 1.0.
37 | network_0/router_level3_151 | Beginning crossbar traversal for flit 3 from input 15.0 to output 1.0.
37 | network_0/router_level3_151 | Completed crossbar traversal for flit 3 from input 15.0 to output 1.0.
37 | network_0/router_level3_151 | Buffering flit 3 at output 1.
37 | network_0/router_level3_151 | Sending flit 3 to channel at output 1.
38 | network_0/network_0_fchan_egress1209 | Beginning channel traversal for flit 3 with delay 1.
38 | network_0/network_0_fchan_egress1209 | Completed channel traversal for flit 3.
39 | node1209 | Ejecting flit 3 (packet 3) from VC 0.
39 | node1209 | Injecting credit for VC 0 into subnet 0.
39 | node1209 | Retiring flit 3 (packet 3, src = 13, dest = 1209, hops = 7, flat = 39).
39 | node1209 | Retiring packet 3 (plat = 39, nlat = 39, frag = 0, src = 13, dest = 1209).
Class 0:
Packet latency average = 259.255
	minimum = 6
	maximum = 784
Network latency average = 259.254
	minimum = 6
	maximum = 784
Slowest packet = 262100
Flit latency average = 259.254
	minimum = 6
	maximum = 784
Slowest flit = 262100
Fragmentation average = 0
	minimum = 0
	maximum = 0
Injected packet rate average = 0.371735
	minimum = 0.289 (at node 612)
	maximum = 0.443 (at node 2488)
Accepted packet rate average = 0.192789
	minimum = 0.151 (at node 4064)
	maximum = 0.251 (at node 2140)
Injected flit rate average = 0.371735
	minimum = 0.289 (at node 612)
	maximum = 0.443 (at node 2488)
Accepted flit rate average= 0.192789
	minimum = 0.151 (at node 4064)
	maximum = 0.251 (at node 2140)
Injected packet length average = 1
Accepted packet length average = 1
Total in-flight flits = 736018 (0 measured)
latency change    = 1
throughput change = 1
Class 0:
Packet latency average = 513.383
	minimum = 6
	maximum = 1526
Network latency average = 499.6
	minimum = 6
	maximum = 1526
Slowest packet = 660163
Flit latency average = 499.6
	minimum = 6
	maximum = 1526
Slowest flit = 660163
Fragmentation average = 0
	minimum = 0
	maximum = 0
Injected packet rate average = 0.279331
	minimum = 0.2045 (at node 2333)
	maximum = 0.3465 (at node 2203)
Accepted packet rate average = 0.193996
	minimum = 0.162 (at node 1939)
	maximum = 0.232 (at node 437)
Injected flit rate average = 0.279331
	minimum = 0.2045 (at node 2333)
	maximum = 0.3465 (at node 2203)
Accepted flit rate average= 0.193996
	minimum = 0.162 (at node 1939)
	maximum = 0.232 (at node 437)
Injected packet length average = 1
Accepted packet length average = 1
Total in-flight flits = 702368 (0 measured)
latency change    = 0.495008
throughput change = 0.00622445
Average latency for class 0 exceeded 500 cycles. Aborting simulation.
Too many sample periods needed to converge
Simulation unstable, ending ...
Total run time 256.976
