BEGIN Configuration File: examples/fattree_config_0.90_4_bitcomp
// $Id: dragonflyconfig 3555 2011-05-16 23:37:55Z dub $

// Copyright (c) 2007-2015, Trustees of The Leland Stanford Junior University
// All rights reserved.
//
// Redistribution and use in source and binary forms, with or without
// modification, are permitted provided that the following conditions are met:
//
// Redistributions of source code must retain the above copyright notice, this
// list of conditions and the following disclaimer.
// Redistributions in binary form must reproduce the above copyright notice,
// this list of conditions and the following disclaimer in the documentation
// and/or other materials provided with the distribution.
//
// THIS SOFTWARE IS PROVIDED BY THE COPYRIGHT HOLDERS AND CONTRIBUTORS "AS IS"
// AND ANY EXPRESS OR IMPLIED WARRANTIES, INCLUDING, BUT NOT LIMITED TO, THE
// IMPLIED WARRANTIES OF MERCHANTABILITY AND FITNESS FOR A PARTICULAR PURPOSE
// ARE DISCLAIMED. IN NO EVENT SHALL THE COPYRIGHT OWNER OR CONTRIBUTORS BE
// LIABLE FOR ANY DIRECT, INDIRECT, INCIDENTAL, SPECIAL, EXEMPLARY, OR
// CONSEQUENTIAL DAMAGES (INCLUDING, BUT NOT LIMITED TO, PROCUREMENT OF
// SUBSTITUTE GOODS OR SERVICES; LOSS OF USE, DATA, OR PROFITS; OR BUSINESS
// INTERRUPTION) HOWEVER CAUSED AND ON ANY THEORY OF LIABILITY, WHETHER IN
// CONTRACT, STRICT LIABILITY, OR TORT (INCLUDING NEGLIGENCE OR OTHERWISE)
// ARISING IN ANY WAY OUT OF THE USE OF THIS SOFTWARE, EVEN IF ADVISED OF THE
// POSSIBILITY OF SUCH DAMAGE.


hold_switch_for_packet=1;

vc_buf_size = 16;


wait_for_tail_credit = 0;

//
// Router architecture
//
vc_allocator = separable_input_first; 
sw_allocator = separable_input_first;
alloc_iters  = 1;

credit_delay   = 2;
routing_delay  = 0;
vc_alloc_delay = 1;
sw_alloc_delay = 1;
st_final_delay = 1;

input_speedup     = 1;
output_speedup    = 1;
internal_speedup  = 1.0;


warmup_periods = 3;
sim_count          = 1;

sample_period  = 1000;  

routing_function = nca;
num_vcs     = 4;

priority = none;
traffic = bitcomp;


injection_rate = 0.90;
packet_size = 1;
injection_rate_uses_flits=1;

topology = fattree;

k  = 8;
n  = 4;
t = 4;

watch_file = watchfile.txt;
watch_out=-;
stats_out = examples/fattree_config_0.90_4_bitcomp.m;

END Configuration File: examples/fattree_config_0.90_4_bitcomp
Fat Tree
 k = 8 levels = 4
 each switch - total radix =  16
 # of switches = 2048
 # of channels = 24576
 # of nodes ( size of network ) = 4096
 tapering factor = 4
0 | node1 | Enqueuing flit 1 (packet 1) at time 0.
0 | node2 | Enqueuing flit 2 (packet 2) at time 0.
0 | node3 | Enqueuing flit 3 (packet 3) at time 0.
0 | node4 | Enqueuing flit 4 (packet 4) at time 0.
0 | node5 | Enqueuing flit 5 (packet 5) at time 0.
0 | node6 | Enqueuing flit 6 (packet 6) at time 0.
0 | node7 | Enqueuing flit 7 (packet 7) at time 0.
0 | node8 | Enqueuing flit 8 (packet 8) at time 0.
0 | node9 | Enqueuing flit 9 (packet 9) at time 0.
0 | node10 | Enqueuing flit 10 (packet 10) at time 0.
0 | traffic_manager | Finding output VC for flit 1:
0 | traffic_manager |   Selected output VC 0.
0 | node1 | Generating lookahead routing info for flit 1.
0 | node1 | Injecting flit 1 into subnet 0 at time 0 with priority 0.
0 | traffic_manager | Finding output VC for flit 2:
0 | traffic_manager |   Selected output VC 0.
0 | node2 | Generating lookahead routing info for flit 2.
0 | node2 | Injecting flit 2 into subnet 0 at time 0 with priority 0.
0 | traffic_manager | Finding output VC for flit 3:
0 | traffic_manager |   Selected output VC 0.
0 | node3 | Generating lookahead routing info for flit 3.
0 | node3 | Injecting flit 3 into subnet 0 at time 0 with priority 0.
0 | traffic_manager | Finding output VC for flit 4:
0 | traffic_manager |   Selected output VC 0.
0 | node4 | Generating lookahead routing info for flit 4.
0 | node4 | Injecting flit 4 into subnet 0 at time 0 with priority 0.
0 | traffic_manager | Finding output VC for flit 5:
0 | traffic_manager |   Selected output VC 0.
0 | node5 | Generating lookahead routing info for flit 5.
0 | node5 | Injecting flit 5 into subnet 0 at time 0 with priority 0.
0 | traffic_manager | Finding output VC for flit 6:
0 | traffic_manager |   Selected output VC 0.
0 | node6 | Generating lookahead routing info for flit 6.
0 | node6 | Injecting flit 6 into subnet 0 at time 0 with priority 0.
0 | traffic_manager | Finding output VC for flit 7:
0 | traffic_manager |   Selected output VC 0.
0 | node7 | Generating lookahead routing info for flit 7.
0 | node7 | Injecting flit 7 into subnet 0 at time 0 with priority 0.
0 | traffic_manager | Finding output VC for flit 8:
0 | traffic_manager |   Selected output VC 0.
0 | node8 | Generating lookahead routing info for flit 8.
0 | node8 | Injecting flit 8 into subnet 0 at time 0 with priority 0.
0 | traffic_manager | Finding output VC for flit 9:
0 | traffic_manager |   Selected output VC 0.
0 | node9 | Generating lookahead routing info for flit 9.
0 | node9 | Injecting flit 9 into subnet 0 at time 0 with priority 0.
0 | traffic_manager | Finding output VC for flit 10:
0 | traffic_manager |   Selected output VC 0.
0 | node10 | Generating lookahead routing info for flit 10.
0 | node10 | Injecting flit 10 into subnet 0 at time 0 with priority 0.
1 | network_0/network_0_fchan_ingress1 | Beginning channel traversal for flit 1 with delay 1.
1 | network_0/network_0_fchan_ingress2 | Beginning channel traversal for flit 2 with delay 1.
1 | network_0/network_0_fchan_ingress3 | Beginning channel traversal for flit 3 with delay 1.
1 | network_0/network_0_fchan_ingress4 | Beginning channel traversal for flit 4 with delay 1.
1 | network_0/network_0_fchan_ingress5 | Beginning channel traversal for flit 5 with delay 1.
1 | network_0/network_0_fchan_ingress6 | Beginning channel traversal for flit 6 with delay 1.
1 | network_0/network_0_fchan_ingress7 | Beginning channel traversal for flit 7 with delay 1.
1 | network_0/network_0_fchan_ingress8 | Beginning channel traversal for flit 8 with delay 1.
1 | network_0/network_0_fchan_ingress9 | Beginning channel traversal for flit 9 with delay 1.
1 | network_0/network_0_fchan_ingress10 | Beginning channel traversal for flit 10 with delay 1.
1 | network_0/network_0_fchan_ingress1 | Completed channel traversal for flit 1.
1 | network_0/network_0_fchan_ingress2 | Completed channel traversal for flit 2.
1 | network_0/network_0_fchan_ingress3 | Completed channel traversal for flit 3.
1 | network_0/network_0_fchan_ingress4 | Completed channel traversal for flit 4.
1 | network_0/network_0_fchan_ingress5 | Completed channel traversal for flit 5.
1 | network_0/network_0_fchan_ingress6 | Completed channel traversal for flit 6.
1 | network_0/network_0_fchan_ingress7 | Completed channel traversal for flit 7.
1 | network_0/network_0_fchan_ingress8 | Completed channel traversal for flit 8.
1 | network_0/network_0_fchan_ingress9 | Completed channel traversal for flit 9.
1 | network_0/network_0_fchan_ingress10 | Completed channel traversal for flit 10.
2 | network_0/router_level3_0 | Received flit 1 from channel at input 1.
2 | network_0/router_level3_0 | Received flit 2 from channel at input 2.
2 | network_0/router_level3_0 | Received flit 3 from channel at input 3.
2 | network_0/router_level3_0 | Received flit 4 from channel at input 4.
2 | network_0/router_level3_0 | Received flit 5 from channel at input 5.
2 | network_0/router_level3_0 | Received flit 6 from channel at input 6.
2 | network_0/router_level3_0 | Received flit 7 from channel at input 7.
2 | network_0/router_level3_1 | Received flit 8 from channel at input 0.
2 | network_0/router_level3_1 | Received flit 9 from channel at input 1.
2 | network_0/router_level3_1 | Received flit 10 from channel at input 2.
2 | network_0/router_level3_0 | Adding flit 1 to VC 0 at input 1 (state: idle, empty).
2 | network_0/router_level3_0 | Using precomputed lookahead routing information for VC 0 at input 1 (front: 1).
2 | network_0/router_level3_0/buf_1/vc_0 | Changing state from idle to vc_alloc.
2 | network_0/router_level3_0 | Adding flit 2 to VC 0 at input 2 (state: idle, empty).
2 | network_0/router_level3_0 | Using precomputed lookahead routing information for VC 0 at input 2 (front: 2).
2 | network_0/router_level3_0/buf_2/vc_0 | Changing state from idle to vc_alloc.
2 | network_0/router_level3_0 | Adding flit 3 to VC 0 at input 3 (state: idle, empty).
2 | network_0/router_level3_0 | Using precomputed lookahead routing information for VC 0 at input 3 (front: 3).
2 | network_0/router_level3_0/buf_3/vc_0 | Changing state from idle to vc_alloc.
2 | network_0/router_level3_0 | Adding flit 4 to VC 0 at input 4 (state: idle, empty).
2 | network_0/router_level3_0 | Using precomputed lookahead routing information for VC 0 at input 4 (front: 4).
2 | network_0/router_level3_0/buf_4/vc_0 | Changing state from idle to vc_alloc.
2 | network_0/router_level3_0 | Adding flit 5 to VC 0 at input 5 (state: idle, empty).
2 | network_0/router_level3_0 | Using precomputed lookahead routing information for VC 0 at input 5 (front: 5).
2 | network_0/router_level3_0/buf_5/vc_0 | Changing state from idle to vc_alloc.
2 | network_0/router_level3_0 | Adding flit 6 to VC 0 at input 6 (state: idle, empty).
2 | network_0/router_level3_0 | Using precomputed lookahead routing information for VC 0 at input 6 (front: 6).
2 | network_0/router_level3_0/buf_6/vc_0 | Changing state from idle to vc_alloc.
2 | network_0/router_level3_0 | Adding flit 7 to VC 0 at input 7 (state: idle, empty).
2 | network_0/router_level3_0 | Using precomputed lookahead routing information for VC 0 at input 7 (front: 7).
2 | network_0/router_level3_0/buf_7/vc_0 | Changing state from idle to vc_alloc.
2 | network_0/router_level3_0 | Beginning VC allocation for VC 0 at input 1 (front: 1).
2 | network_0/router_level3_0 |   Requesting VC 0 at output 10 (in_pri: 0, out_pri: 0).
2 | network_0/router_level3_0 |   Requesting VC 1 at output 10 (in_pri: 0, out_pri: 0).
2 | network_0/router_level3_0 |   Requesting VC 2 at output 10 (in_pri: 0, out_pri: 0).
2 | network_0/router_level3_0 |   Requesting VC 3 at output 10 (in_pri: 0, out_pri: 0).
2 | network_0/router_level3_0 | Beginning VC allocation for VC 0 at input 2 (front: 2).
2 | network_0/router_level3_0 |   Requesting VC 0 at output 13 (in_pri: 0, out_pri: 0).
2 | network_0/router_level3_0 |   Requesting VC 1 at output 13 (in_pri: 0, out_pri: 0).
2 | network_0/router_level3_0 |   Requesting VC 2 at output 13 (in_pri: 0, out_pri: 0).
2 | network_0/router_level3_0 |   Requesting VC 3 at output 13 (in_pri: 0, out_pri: 0).
2 | network_0/router_level3_0 | Beginning VC allocation for VC 0 at input 3 (front: 3).
2 | network_0/router_level3_0 |   Requesting VC 0 at output 13 (in_pri: 0, out_pri: 0).
2 | network_0/router_level3_0 |   Requesting VC 1 at output 13 (in_pri: 0, out_pri: 0).
2 | network_0/router_level3_0 |   Requesting VC 2 at output 13 (in_pri: 0, out_pri: 0).
2 | network_0/router_level3_0 |   Requesting VC 3 at output 13 (in_pri: 0, out_pri: 0).
2 | network_0/router_level3_0 | Beginning VC allocation for VC 0 at input 4 (front: 4).
2 | network_0/router_level3_0 |   Requesting VC 0 at output 8 (in_pri: 0, out_pri: 0).
2 | network_0/router_level3_0 |   Requesting VC 1 at output 8 (in_pri: 0, out_pri: 0).
2 | network_0/router_level3_0 |   Requesting VC 2 at output 8 (in_pri: 0, out_pri: 0).
2 | network_0/router_level3_0 |   Requesting VC 3 at output 8 (in_pri: 0, out_pri: 0).
2 | network_0/router_level3_0 | Beginning VC allocation for VC 0 at input 5 (front: 5).
2 | network_0/router_level3_0 |   Requesting VC 0 at output 14 (in_pri: 0, out_pri: 0).
2 | network_0/router_level3_0 |   Requesting VC 1 at output 14 (in_pri: 0, out_pri: 0).
2 | network_0/router_level3_0 |   Requesting VC 2 at output 14 (in_pri: 0, out_pri: 0).
2 | network_0/router_level3_0 |   Requesting VC 3 at output 14 (in_pri: 0, out_pri: 0).
2 | network_0/router_level3_0 | Beginning VC allocation for VC 0 at input 6 (front: 6).
2 | network_0/router_level3_0 |   Requesting VC 0 at output 12 (in_pri: 0, out_pri: 0).
2 | network_0/router_level3_0 |   Requesting VC 1 at output 12 (in_pri: 0, out_pri: 0).
2 | network_0/router_level3_0 |   Requesting VC 2 at output 12 (in_pri: 0, out_pri: 0).
2 | network_0/router_level3_0 |   Requesting VC 3 at output 12 (in_pri: 0, out_pri: 0).
2 | network_0/router_level3_0 | Beginning VC allocation for VC 0 at input 7 (front: 7).
2 | network_0/router_level3_0 |   Requesting VC 0 at output 13 (in_pri: 0, out_pri: 0).
2 | network_0/router_level3_0 |   Requesting VC 1 at output 13 (in_pri: 0, out_pri: 0).
2 | network_0/router_level3_0 |   Requesting VC 2 at output 13 (in_pri: 0, out_pri: 0).
2 | network_0/router_level3_0 |   Requesting VC 3 at output 13 (in_pri: 0, out_pri: 0).
2 | network_0/router_level3_0/vc_allocator | Input requests = [ 0 -> [ 56@0 57@0 58@0 59@0 ]  4 -> [ 40@0 41@0 42@0 43@0 ]  8 -> [ 52@0 53@0 54@0 55@0 ]  12 -> [ 52@0 53@0 54@0 55@0 ]  16 -> [ 32@0 33@0 34@0 35@0 ]  20 -> [ 56@0 57@0 58@0 59@0 ]  24 -> [ 48@0 49@0 50@0 51@0 ]  28 -> [ 52@0 53@0 54@0 55@0 ]  ], output requests = [ 32 -> [ 16@0 ]  33 -> [ 16@0 ]  34 -> [ 16@0 ]  35 -> [ 16@0 ]  40 -> [ 4@0 ]  41 -> [ 4@0 ]  42 -> [ 4@0 ]  43 -> [ 4@0 ]  48 -> [ 24@0 ]  49 -> [ 24@0 ]  50 -> [ 24@0 ]  51 -> [ 24@0 ]  52 -> [ 8@0 12@0 28@0 ]  53 -> [ 8@0 12@0 28@0 ]  54 -> [ 8@0 12@0 28@0 ]  55 -> [ 8@0 12@0 28@0 ]  56 -> [ 0@0 20@0 ]  57 -> [ 0@0 20@0 ]  58 -> [ 0@0 20@0 ]  59 -> [ 0@0 20@0 ]  ].
2 | network_0/router_level3_0/vc_allocator | Input grants = [ 0 -> 56  4 -> 40  8 -> 52  16 -> 32  24 -> 48  ], output grants = [ 32 -> 16  40 -> 4  48 -> 24  52 -> 8  56 -> 0  ].
2 | network_0/router_level3_0 | Assigning VC 0 at output 10 to VC 0 at input 1.
2 | network_0/router_level3_0 | Assigning VC 0 at output 13 to VC 0 at input 2.
2 | network_0/router_level3_0 | VC allocation failed for VC 0 at input 3.
2 | network_0/router_level3_0 | Assigning VC 0 at output 8 to VC 0 at input 4.
2 | network_0/router_level3_0 | VC allocation failed for VC 0 at input 5.
2 | network_0/router_level3_0 | Assigning VC 0 at output 12 to VC 0 at input 6.
2 | network_0/router_level3_0 | VC allocation failed for VC 0 at input 7.
2 | network_0/router_level3_0 | Completed VC allocation for VC 0 at input 1 (front: 1).
2 | network_0/router_level3_0 |   Acquiring assigned VC 0 at output 10.
2 | network_0/router_level3_0/buf_1/vc_0 | Changing state from vc_alloc to active.
2 | network_0/router_level3_0 | Completed VC allocation for VC 0 at input 2 (front: 2).
2 | network_0/router_level3_0 |   Acquiring assigned VC 0 at output 13.
2 | network_0/router_level3_0/buf_2/vc_0 | Changing state from vc_alloc to active.
2 | network_0/router_level3_0 | Completed VC allocation for VC 0 at input 3 (front: 3).
2 | network_0/router_level3_0 |   No output VC allocated.
2 | network_0/router_level3_0 | Completed VC allocation for VC 0 at input 4 (front: 4).
2 | network_0/router_level3_0 |   Acquiring assigned VC 0 at output 8.
2 | network_0/router_level3_0/buf_4/vc_0 | Changing state from vc_alloc to active.
2 | network_0/router_level3_0 | Completed VC allocation for VC 0 at input 5 (front: 5).
2 | network_0/router_level3_0 |   No output VC allocated.
2 | network_0/router_level3_0 | Completed VC allocation for VC 0 at input 6 (front: 6).
2 | network_0/router_level3_0 |   Acquiring assigned VC 0 at output 12.
2 | network_0/router_level3_0/buf_6/vc_0 | Changing state from vc_alloc to active.
2 | network_0/router_level3_0 | Completed VC allocation for VC 0 at input 7 (front: 7).
2 | network_0/router_level3_0 |   No output VC allocated.
2 | network_0/router_level3_1 | Adding flit 8 to VC 0 at input 0 (state: idle, empty).
2 | network_0/router_level3_1 | Using precomputed lookahead routing information for VC 0 at input 0 (front: 8).
2 | network_0/router_level3_1/buf_0/vc_0 | Changing state from idle to vc_alloc.
2 | network_0/router_level3_1 | Adding flit 9 to VC 0 at input 1 (state: idle, empty).
2 | network_0/router_level3_1 | Using precomputed lookahead routing information for VC 0 at input 1 (front: 9).
2 | network_0/router_level3_1/buf_1/vc_0 | Changing state from idle to vc_alloc.
2 | network_0/router_level3_1 | Adding flit 10 to VC 0 at input 2 (state: idle, empty).
2 | network_0/router_level3_1 | Using precomputed lookahead routing information for VC 0 at input 2 (front: 10).
2 | network_0/router_level3_1/buf_2/vc_0 | Changing state from idle to vc_alloc.
2 | network_0/router_level3_1 | Beginning VC allocation for VC 0 at input 0 (front: 8).
2 | network_0/router_level3_1 |   Requesting VC 0 at output 15 (in_pri: 0, out_pri: 0).
2 | network_0/router_level3_1 |   Requesting VC 1 at output 15 (in_pri: 0, out_pri: 0).
2 | network_0/router_level3_1 |   Requesting VC 2 at output 15 (in_pri: 0, out_pri: 0).
2 | network_0/router_level3_1 |   Requesting VC 3 at output 15 (in_pri: 0, out_pri: 0).
2 | network_0/router_level3_1 | Beginning VC allocation for VC 0 at input 1 (front: 9).
2 | network_0/router_level3_1 |   Requesting VC 0 at output 11 (in_pri: 0, out_pri: 0).
2 | network_0/router_level3_1 |   Requesting VC 1 at output 11 (in_pri: 0, out_pri: 0).
2 | network_0/router_level3_1 |   Requesting VC 2 at output 11 (in_pri: 0, out_pri: 0).
2 | network_0/router_level3_1 |   Requesting VC 3 at output 11 (in_pri: 0, out_pri: 0).
2 | network_0/router_level3_1 | Beginning VC allocation for VC 0 at input 2 (front: 10).
2 | network_0/router_level3_1 |   Requesting VC 0 at output 10 (in_pri: 0, out_pri: 0).
2 | network_0/router_level3_1 |   Requesting VC 1 at output 10 (in_pri: 0, out_pri: 0).
2 | network_0/router_level3_1 |   Requesting VC 2 at output 10 (in_pri: 0, out_pri: 0).
2 | network_0/router_level3_1 |   Requesting VC 3 at output 10 (in_pri: 0, out_pri: 0).
2 | network_0/router_level3_1/vc_allocator | Input requests = [ 0 -> [ 60@0 61@0 62@0 63@0 ]  4 -> [ 44@0 45@0 46@0 47@0 ]  8 -> [ 40@0 41@0 42@0 43@0 ]  12 -> [ 52@0 53@0 54@0 55@0 ]  16 -> [ 60@0 61@0 62@0 63@0 ]  20 -> [ 36@0 37@0 38@0 39@0 ]  24 -> [ 60@0 61@0 62@0 63@0 ]  28 -> [ 60@0 61@0 62@0 63@0 ]  ], output requests = [ 36 -> [ 20@0 ]  37 -> [ 20@0 ]  38 -> [ 20@0 ]  39 -> [ 20@0 ]  40 -> [ 8@0 ]  41 -> [ 8@0 ]  42 -> [ 8@0 ]  43 -> [ 8@0 ]  44 -> [ 4@0 ]  45 -> [ 4@0 ]  46 -> [ 4@0 ]  47 -> [ 4@0 ]  52 -> [ 12@0 ]  53 -> [ 12@0 ]  54 -> [ 12@0 ]  55 -> [ 12@0 ]  60 -> [ 0@0 16@0 24@0 28@0 ]  61 -> [ 0@0 16@0 24@0 28@0 ]  62 -> [ 0@0 16@0 24@0 28@0 ]  63 -> [ 0@0 16@0 24@0 28@0 ]  ].
2 | network_0/router_level3_1/vc_allocator | Input grants = [ 0 -> 60  4 -> 44  8 -> 40  12 -> 52  20 -> 36  ], output grants = [ 36 -> 20  40 -> 8  44 -> 4  52 -> 12  60 -> 0  ].
2 | network_0/router_level3_1 | Assigning VC 0 at output 15 to VC 0 at input 0.
2 | network_0/router_level3_1 | Assigning VC 0 at output 11 to VC 0 at input 1.
2 | network_0/router_level3_1 | Assigning VC 0 at output 10 to VC 0 at input 2.
2 | network_0/router_level3_1 | Completed VC allocation for VC 0 at input 0 (front: 8).
2 | network_0/router_level3_1 |   Acquiring assigned VC 0 at output 15.
2 | network_0/router_level3_1/buf_0/vc_0 | Changing state from vc_alloc to active.
2 | network_0/router_level3_1 | Completed VC allocation for VC 0 at input 1 (front: 9).
2 | network_0/router_level3_1 |   Acquiring assigned VC 0 at output 11.
2 | network_0/router_level3_1/buf_1/vc_0 | Changing state from vc_alloc to active.
2 | network_0/router_level3_1 | Completed VC allocation for VC 0 at input 2 (front: 10).
2 | network_0/router_level3_1 |   Acquiring assigned VC 0 at output 10.
2 | network_0/router_level3_1/buf_2/vc_0 | Changing state from vc_alloc to active.
3 | network_0/router_level3_0 | Beginning VC allocation for VC 0 at input 3 (front: 3).
3 | network_0/router_level3_0 |   VC 0 at output 13 is in use by VC 0 at input 2 (front flit: 2).
3 | network_0/router_level3_0 |   Requesting VC 1 at output 13 (in_pri: 0, out_pri: 0).
3 | network_0/router_level3_0 |   Requesting VC 2 at output 13 (in_pri: 0, out_pri: 0).
3 | network_0/router_level3_0 |   Requesting VC 3 at output 13 (in_pri: 0, out_pri: 0).
3 | network_0/router_level3_0 | Beginning VC allocation for VC 0 at input 5 (front: 5).
3 | network_0/router_level3_0 |   VC 0 at output 14 is in use by VC 0 at input 0 (front flit: 0).
3 | network_0/router_level3_0 |   Requesting VC 1 at output 14 (in_pri: 0, out_pri: 0).
3 | network_0/router_level3_0 |   Requesting VC 2 at output 14 (in_pri: 0, out_pri: 0).
3 | network_0/router_level3_0 |   Requesting VC 3 at output 14 (in_pri: 0, out_pri: 0).
3 | network_0/router_level3_0 | Beginning VC allocation for VC 0 at input 7 (front: 7).
3 | network_0/router_level3_0 |   VC 0 at output 13 is in use by VC 0 at input 2 (front flit: 2).
3 | network_0/router_level3_0 |   Requesting VC 1 at output 13 (in_pri: 0, out_pri: 0).
3 | network_0/router_level3_0 |   Requesting VC 2 at output 13 (in_pri: 0, out_pri: 0).
3 | network_0/router_level3_0 |   Requesting VC 3 at output 13 (in_pri: 0, out_pri: 0).
3 | network_0/router_level3_0/vc_allocator | Input requests = [ 1 -> [ 57@0 58@0 59@0 ]  5 -> [ 53@0 54@0 55@0 ]  9 -> [ 41@0 42@0 43@0 ]  12 -> [ 53@0 54@0 55@0 ]  13 -> [ 49@0 50@0 51@0 ]  17 -> [ 57@0 58@0 59@0 ]  20 -> [ 57@0 58@0 59@0 ]  21 -> [ 33@0 34@0 35@0 ]  25 -> [ 57@0 58@0 59@0 ]  28 -> [ 53@0 54@0 55@0 ]  29 -> [ 36@0 37@0 38@0 39@0 ]  ], output requests = [ 33 -> [ 21@0 ]  34 -> [ 21@0 ]  35 -> [ 21@0 ]  36 -> [ 29@0 ]  37 -> [ 29@0 ]  38 -> [ 29@0 ]  39 -> [ 29@0 ]  41 -> [ 9@0 ]  42 -> [ 9@0 ]  43 -> [ 9@0 ]  49 -> [ 13@0 ]  50 -> [ 13@0 ]  51 -> [ 13@0 ]  53 -> [ 5@0 12@0 28@0 ]  54 -> [ 5@0 12@0 28@0 ]  55 -> [ 5@0 12@0 28@0 ]  57 -> [ 1@0 17@0 20@0 25@0 ]  58 -> [ 1@0 17@0 20@0 25@0 ]  59 -> [ 1@0 17@0 20@0 25@0 ]  ].
3 | network_0/router_level3_0/vc_allocator | Input grants = [ 1 -> 57  5 -> 53  9 -> 41  13 -> 49  21 -> 33  29 -> 36  ], output grants = [ 33 -> 21  36 -> 29  41 -> 9  49 -> 13  53 -> 5  57 -> 1  ].
3 | network_0/router_level3_0 | VC allocation failed for VC 0 at input 3.
3 | network_0/router_level3_0 | VC allocation failed for VC 0 at input 5.
3 | network_0/router_level3_0 | VC allocation failed for VC 0 at input 7.
3 | network_0/router_level3_0 | Beginning switch allocation for VC 0 at input 1 (front: 1).
3 | network_0/router_level3_0 |   Requesting output 10.0 (non-spec, pri: 0).
3 | network_0/router_level3_0 | Beginning switch allocation for VC 0 at input 2 (front: 2).
3 | network_0/router_level3_0 |   Requesting output 13.0 (non-spec, pri: 0).
3 | network_0/router_level3_0 | Beginning switch allocation for VC 0 at input 4 (front: 4).
3 | network_0/router_level3_0 |   Requesting output 8.0 (non-spec, pri: 0).
3 | network_0/router_level3_0 | Beginning switch allocation for VC 0 at input 6 (front: 6).
3 | network_0/router_level3_0 |   Requesting output 12.0 (non-spec, pri: 0).
3 | network_0/router_level3_0/sw_allocator | Input requests = [ 0 -> [ 14@0 ]  1 -> [ 10@0 ]  2 -> [ 13@0 ]  4 -> [ 8@0 ]  6 -> [ 12@0 ]  ], output requests = [ 8 -> [ 4@0 ]  10 -> [ 1@0 ]  12 -> [ 6@0 ]  13 -> [ 2@0 ]  14 -> [ 0@0 ]  ].
3 | network_0/router_level3_0/sw_allocator | Input grants = [ 0 -> 14  1 -> 10  2 -> 13  4 -> 8  6 -> 12  ], output grants = [ 8 -> 4  10 -> 1  12 -> 6  13 -> 2  14 -> 0  ].
3 | network_0/router_level3_0 | Assigning output 10.0 to VC 0 at input 1.0.
3 | network_0/router_level3_0 | Assigning output 13.0 to VC 0 at input 2.0.
3 | network_0/router_level3_0 | Assigning output 8.0 to VC 0 at input 4.0.
3 | network_0/router_level3_0 | Assigning output 12.0 to VC 0 at input 6.0.
3 | network_0/router_level3_0 | Completed VC allocation for VC 0 at input 3 (front: 3).
3 | network_0/router_level3_0 |   No output VC allocated.
3 | network_0/router_level3_0 | Completed VC allocation for VC 0 at input 5 (front: 5).
3 | network_0/router_level3_0 |   No output VC allocated.
3 | network_0/router_level3_0 | Completed VC allocation for VC 0 at input 7 (front: 7).
3 | network_0/router_level3_0 |   No output VC allocated.
3 | network_0/router_level3_0 | Completed switch allocation for VC 0 at input 1 (front: 1).
3 | network_0/router_level3_0 |   Scheduling switch connection from input 1.0 to output 10.0.
3 | network_0/router_level3_0 | Updating lookahead routing information for flit 1.
3 | network_0/router_level3_0 | Completed switch allocation for VC 0 at input 2 (front: 2).
3 | network_0/router_level3_0 |   Scheduling switch connection from input 2.0 to output 13.0.
3 | network_0/router_level3_0 | Updating lookahead routing information for flit 2.
3 | network_0/router_level3_0 | Completed switch allocation for VC 0 at input 4 (front: 4).
3 | network_0/router_level3_0 |   Scheduling switch connection from input 4.0 to output 8.0.
3 | network_0/router_level3_0 | Updating lookahead routing information for flit 4.
3 | network_0/router_level3_0 | Completed switch allocation for VC 0 at input 6 (front: 6).
3 | network_0/router_level3_0 |   Scheduling switch connection from input 6.0 to output 12.0.
3 | network_0/router_level3_0 | Updating lookahead routing information for flit 6.
3 | network_0/router_level3_1 | Beginning switch allocation for VC 0 at input 0 (front: 8).
3 | network_0/router_level3_1 |   Requesting output 15.0 (non-spec, pri: 0).
3 | network_0/router_level3_1 | Beginning switch allocation for VC 0 at input 1 (front: 9).
3 | network_0/router_level3_1 |   Requesting output 11.0 (non-spec, pri: 0).
3 | network_0/router_level3_1 | Beginning switch allocation for VC 0 at input 2 (front: 10).
3 | network_0/router_level3_1 |   Requesting output 10.0 (non-spec, pri: 0).
3 | network_0/router_level3_1/sw_allocator | Input requests = [ 0 -> [ 15@0 ]  1 -> [ 11@0 ]  2 -> [ 10@0 ]  3 -> [ 13@0 ]  5 -> [ 9@0 ]  ], output requests = [ 9 -> [ 5@0 ]  10 -> [ 2@0 ]  11 -> [ 1@0 ]  13 -> [ 3@0 ]  15 -> [ 0@0 ]  ].
3 | network_0/router_level3_1/sw_allocator | Input grants = [ 0 -> 15  1 -> 11  2 -> 10  3 -> 13  5 -> 9  ], output grants = [ 9 -> 5  10 -> 2  11 -> 1  13 -> 3  15 -> 0  ].
3 | network_0/router_level3_1 | Assigning output 15.0 to VC 0 at input 0.0.
3 | network_0/router_level3_1 | Assigning output 11.0 to VC 0 at input 1.0.
3 | network_0/router_level3_1 | Assigning output 10.0 to VC 0 at input 2.0.
3 | network_0/router_level3_1 | Completed switch allocation for VC 0 at input 0 (front: 8).
3 | network_0/router_level3_1 |   Scheduling switch connection from input 0.0 to output 15.0.
3 | network_0/router_level3_1 | Updating lookahead routing information for flit 8.
3 | network_0/router_level3_1 | Completed switch allocation for VC 0 at input 1 (front: 9).
3 | network_0/router_level3_1 |   Scheduling switch connection from input 1.0 to output 11.0.
3 | network_0/router_level3_1 | Updating lookahead routing information for flit 9.
3 | network_0/router_level3_1 | Completed switch allocation for VC 0 at input 2 (front: 10).
3 | network_0/router_level3_1 |   Scheduling switch connection from input 2.0 to output 10.0.
3 | network_0/router_level3_1 | Updating lookahead routing information for flit 10.
4 | network_0/router_level3_0 | Beginning VC allocation for VC 0 at input 3 (front: 3).
4 | network_0/router_level3_0 |   Requesting VC 0 at output 13 (in_pri: 0, out_pri: 0).
4 | network_0/router_level3_0 |   VC 1 at output 13 is in use by VC 1 at input 1 (front flit: 3687).
4 | network_0/router_level3_0 |   Requesting VC 2 at output 13 (in_pri: 0, out_pri: 0).
4 | network_0/router_level3_0 |   Requesting VC 3 at output 13 (in_pri: 0, out_pri: 0).
4 | network_0/router_level3_0 | Beginning VC allocation for VC 0 at input 5 (front: 5).
4 | network_0/router_level3_0 |   Requesting VC 0 at output 14 (in_pri: 0, out_pri: 0).
4 | network_0/router_level3_0 |   VC 1 at output 14 is in use by VC 1 at input 0 (front flit: 3686).
4 | network_0/router_level3_0 |   Requesting VC 2 at output 14 (in_pri: 0, out_pri: 0).
4 | network_0/router_level3_0 |   Requesting VC 3 at output 14 (in_pri: 0, out_pri: 0).
4 | network_0/router_level3_0 | Beginning VC allocation for VC 0 at input 7 (front: 7).
4 | network_0/router_level3_0 |   Requesting VC 0 at output 13 (in_pri: 0, out_pri: 0).
4 | network_0/router_level3_0 |   VC 1 at output 13 is in use by VC 1 at input 1 (front flit: 3687).
4 | network_0/router_level3_0 |   Requesting VC 2 at output 13 (in_pri: 0, out_pri: 0).
4 | network_0/router_level3_0 |   Requesting VC 3 at output 13 (in_pri: 0, out_pri: 0).
4 | network_0/router_level3_0/vc_allocator | Input requests = [ 2 -> [ 52@0 54@0 55@0 ]  6 -> [ 40@0 42@0 43@0 ]  10 -> [ 56@0 58@0 59@0 ]  12 -> [ 52@0 54@0 55@0 ]  14 -> [ 48@0 50@0 51@0 ]  17 -> [ 56@0 58@0 59@0 ]  20 -> [ 56@0 58@0 59@0 ]  22 -> [ 40@0 42@0 43@0 ]  25 -> [ 56@0 58@0 59@0 ]  26 -> [ 52@0 54@0 55@0 ]  28 -> [ 52@0 54@0 55@0 ]  30 -> [ 44@0 45@0 46@0 47@0 ]  ], output requests = [ 40 -> [ 6@0 22@0 ]  42 -> [ 6@0 22@0 ]  43 -> [ 6@0 22@0 ]  44 -> [ 30@0 ]  45 -> [ 30@0 ]  46 -> [ 30@0 ]  47 -> [ 30@0 ]  48 -> [ 14@0 ]  50 -> [ 14@0 ]  51 -> [ 14@0 ]  52 -> [ 2@0 12@0 26@0 28@0 ]  54 -> [ 2@0 12@0 26@0 28@0 ]  55 -> [ 2@0 12@0 26@0 28@0 ]  56 -> [ 10@0 17@0 20@0 25@0 ]  58 -> [ 10@0 17@0 20@0 25@0 ]  59 -> [ 10@0 17@0 20@0 25@0 ]  ].
4 | network_0/router_level3_0/vc_allocator | Input grants = [ 6 -> 40  10 -> 56  12 -> 52  14 -> 48  30 -> 44  ], output grants = [ 40 -> 6  44 -> 30  48 -> 14  52 -> 12  56 -> 10  ].
4 | network_0/router_level3_0 | Assigning VC 0 at output 13 to VC 0 at input 3.
4 | network_0/router_level3_0 | VC allocation failed for VC 0 at input 5.
4 | network_0/router_level3_0 | VC allocation failed for VC 0 at input 7.
4 | network_0/router_level3_0 | Beginning crossbar traversal for flit 1 from input 1.0 to output 10.0.
4 | network_0/router_level3_0 | Beginning crossbar traversal for flit 2 from input 2.0 to output 13.0.
4 | network_0/router_level3_0 | Beginning crossbar traversal for flit 4 from input 4.0 to output 8.0.
4 | network_0/router_level3_0 | Beginning crossbar traversal for flit 6 from input 6.0 to output 12.0.
4 | network_0/router_level3_0 | Completed VC allocation for VC 0 at input 3 (front: 3).
4 | network_0/router_level3_0 |   Acquiring assigned VC 0 at output 13.
4 | network_0/router_level3_0/buf_3/vc_0 | Changing state from vc_alloc to active.
4 | network_0/router_level3_0 | Completed VC allocation for VC 0 at input 5 (front: 5).
4 | network_0/router_level3_0 |   No output VC allocated.
4 | network_0/router_level3_0 | Completed VC allocation for VC 0 at input 7 (front: 7).
4 | network_0/router_level3_0 |   No output VC allocated.
4 | network_0/router_level3_0 | Completed crossbar traversal for flit 1 from input 1.0 to output 10.0.
4 | network_0/router_level3_0 | Buffering flit 1 at output 10.
4 | network_0/router_level3_0 | Completed crossbar traversal for flit 2 from input 2.0 to output 13.0.
4 | network_0/router_level3_0 | Buffering flit 2 at output 13.
4 | network_0/router_level3_0 | Completed crossbar traversal for flit 4 from input 4.0 to output 8.0.
4 | network_0/router_level3_0 | Buffering flit 4 at output 8.
4 | network_0/router_level3_0 | Completed crossbar traversal for flit 6 from input 6.0 to output 12.0.
4 | network_0/router_level3_0 | Buffering flit 6 at output 12.
4 | network_0/router_level3_1 | Beginning crossbar traversal for flit 8 from input 0.0 to output 15.0.
4 | network_0/router_level3_1 | Beginning crossbar traversal for flit 9 from input 1.0 to output 11.0.
4 | network_0/router_level3_1 | Beginning crossbar traversal for flit 10 from input 2.0 to output 10.0.
4 | network_0/router_level3_1 | Completed crossbar traversal for flit 8 from input 0.0 to output 15.0.
4 | network_0/router_level3_1 | Buffering flit 8 at output 15.
4 | network_0/router_level3_1 | Completed crossbar traversal for flit 9 from input 1.0 to output 11.0.
4 | network_0/router_level3_1 | Buffering flit 9 at output 11.
4 | network_0/router_level3_1 | Completed crossbar traversal for flit 10 from input 2.0 to output 10.0.
4 | network_0/router_level3_1 | Buffering flit 10 at output 10.
4 | network_0/router_level3_0 | Sending flit 4 to channel at output 8.
4 | network_0/router_level3_0 | Sending flit 1 to channel at output 10.
4 | network_0/router_level3_0 | Sending flit 6 to channel at output 12.
4 | network_0/router_level3_0 | Sending flit 2 to channel at output 13.
4 | network_0/router_level3_1 | Sending flit 10 to channel at output 10.
4 | network_0/router_level3_1 | Sending flit 9 to channel at output 11.
4 | network_0/router_level3_1 | Sending flit 8 to channel at output 15.
5 | network_0/network_0_fchan_20480 | Beginning channel traversal for flit 4 with delay 1.
5 | network_0/network_0_fchan_20482 | Beginning channel traversal for flit 1 with delay 1.
5 | network_0/network_0_fchan_20484 | Beginning channel traversal for flit 6 with delay 1.
5 | network_0/network_0_fchan_20485 | Beginning channel traversal for flit 2 with delay 1.
5 | network_0/network_0_fchan_20490 | Beginning channel traversal for flit 10 with delay 1.
5 | network_0/network_0_fchan_20491 | Beginning channel traversal for flit 9 with delay 1.
5 | network_0/network_0_fchan_20495 | Beginning channel traversal for flit 8 with delay 1.
5 | network_0/router_level3_0 | Beginning VC allocation for VC 0 at input 5 (front: 5).
5 | network_0/router_level3_0 |   VC 0 at output 14 is in use by VC 2 at input 2 (front flit: 7385).
5 | network_0/router_level3_0 |   Requesting VC 1 at output 14 (in_pri: 0, out_pri: 0).
5 | network_0/router_level3_0 |   Requesting VC 2 at output 14 (in_pri: 0, out_pri: 0).
5 | network_0/router_level3_0 |   Requesting VC 3 at output 14 (in_pri: 0, out_pri: 0).
5 | network_0/router_level3_0 | Beginning VC allocation for VC 0 at input 7 (front: 7).
5 | network_0/router_level3_0 |   VC 0 at output 13 is in use by VC 0 at input 3 (front flit: 3).
5 | network_0/router_level3_0 |   Requesting VC 1 at output 13 (in_pri: 0, out_pri: 0).
5 | network_0/router_level3_0 |   Requesting VC 2 at output 13 (in_pri: 0, out_pri: 0).
5 | network_0/router_level3_0 |   Requesting VC 3 at output 13 (in_pri: 0, out_pri: 0).
5 | network_0/router_level3_0/vc_allocator | Input requests = [ 2 -> [ 53@0 54@0 55@0 ]  3 -> [ 49@0 50@0 51@0 ]  7 -> [ 53@0 54@0 55@0 ]  15 -> [ 36@0 37@0 38@0 39@0 ]  17 -> [ 57@0 58@0 59@0 ]  18 -> [ 32@0 33@0 34@0 35@0 ]  20 -> [ 57@0 58@0 59@0 ]  22 -> [ 41@0 42@0 43@0 ]  23 -> [ 60@0 61@0 62@0 63@0 ]  25 -> [ 57@0 58@0 59@0 ]  26 -> [ 53@0 54@0 55@0 ]  27 -> [ 41@0 42@0 43@0 ]  28 -> [ 53@0 54@0 55@0 ]  31 -> [ 45@0 46@0 47@0 ]  ], output requests = [ 32 -> [ 18@0 ]  33 -> [ 18@0 ]  34 -> [ 18@0 ]  35 -> [ 18@0 ]  36 -> [ 15@0 ]  37 -> [ 15@0 ]  38 -> [ 15@0 ]  39 -> [ 15@0 ]  41 -> [ 22@0 27@0 ]  42 -> [ 22@0 27@0 ]  43 -> [ 22@0 27@0 ]  45 -> [ 31@0 ]  46 -> [ 31@0 ]  47 -> [ 31@0 ]  49 -> [ 3@0 ]  50 -> [ 3@0 ]  51 -> [ 3@0 ]  53 -> [ 2@0 7@0 26@0 28@0 ]  54 -> [ 2@0 7@0 26@0 28@0 ]  55 -> [ 2@0 7@0 26@0 28@0 ]  57 -> [ 17@0 20@0 25@0 ]  58 -> [ 17@0 20@0 25@0 ]  59 -> [ 17@0 20@0 25@0 ]  60 -> [ 23@0 ]  61 -> [ 23@0 ]  62 -> [ 23@0 ]  63 -> [ 23@0 ]  ].
5 | network_0/router_level3_0/vc_allocator | Input grants = [ 3 -> 49  7 -> 53  15 -> 36  17 -> 57  18 -> 32  22 -> 41  23 -> 60  31 -> 45  ], output grants = [ 32 -> 18  36 -> 15  41 -> 22  45 -> 31  49 -> 3  53 -> 7  57 -> 17  60 -> 23  ].
5 | network_0/router_level3_0 | VC allocation failed for VC 0 at input 5.
5 | network_0/router_level3_0 | VC allocation failed for VC 0 at input 7.
5 | network_0/router_level3_0 | Beginning switch allocation for VC 0 at input 3 (front: 3).
5 | network_0/router_level3_0 |   Requesting output 13.0 (non-spec, pri: 0).
5 | network_0/router_level3_0/sw_allocator | Input requests = [ 1 -> [ 10@0 ]  2 -> [ 14@0 ]  3 -> [ 12@0 13@0 ]  7 -> [ 11@0 ]  ], output requests = [ 10 -> [ 1@0 ]  11 -> [ 7@0 ]  12 -> [ 3@0 ]  13 -> [ 3@0 ]  14 -> [ 2@0 ]  ].
5 | network_0/router_level3_0/sw_allocator | Input grants = [ 1 -> 10  2 -> 14  3 -> 13  7 -> 11  ], output grants = [ 10 -> 1  11 -> 7  13 -> 3  14 -> 2  ].
5 | network_0/router_level3_0 | Assigning output 13.0 to VC 0 at input 3.0.
5 | network_0/router_level3_0 | Completed VC allocation for VC 0 at input 5 (front: 5).
5 | network_0/router_level3_0 |   No output VC allocated.
5 | network_0/router_level3_0 | Completed VC allocation for VC 0 at input 7 (front: 7).
5 | network_0/router_level3_0 |   No output VC allocated.
5 | network_0/router_level3_0 | Completed switch allocation for VC 0 at input 3 (front: 3).
5 | network_0/router_level3_0 |   Scheduling switch connection from input 3.0 to output 13.0.
5 | network_0/router_level3_0 | Updating lookahead routing information for flit 3.
5 | network_0/network_0_fchan_20480 | Completed channel traversal for flit 4.
5 | network_0/network_0_fchan_20482 | Completed channel traversal for flit 1.
5 | network_0/network_0_fchan_20484 | Completed channel traversal for flit 6.
5 | network_0/network_0_fchan_20485 | Completed channel traversal for flit 2.
5 | network_0/network_0_fchan_20490 | Completed channel traversal for flit 10.
5 | network_0/network_0_fchan_20491 | Completed channel traversal for flit 9.
5 | network_0/network_0_fchan_20495 | Completed channel traversal for flit 8.
6 | network_0/router_level2_0 | Received flit 4 from channel at input 0.
6 | network_0/router_level2_2 | Received flit 1 from channel at input 0.
6 | network_0/router_level2_2 | Received flit 10 from channel at input 1.
6 | network_0/router_level2_3 | Received flit 9 from channel at input 1.
6 | network_0/router_level2_4 | Received flit 6 from channel at input 0.
6 | network_0/router_level2_5 | Received flit 2 from channel at input 0.
6 | network_0/router_level2_7 | Received flit 8 from channel at input 1.
6 | network_0/router_level2_0 | Adding flit 4 to VC 0 at input 0 (state: idle, empty).
6 | network_0/router_level2_0 | Using precomputed lookahead routing information for VC 0 at input 0 (front: 4).
6 | network_0/router_level2_0/buf_0/vc_0 | Changing state from idle to vc_alloc.
6 | network_0/router_level2_0 | Beginning VC allocation for VC 0 at input 0 (front: 4).
6 | network_0/router_level2_0 |   Requesting VC 0 at output 9 (in_pri: 0, out_pri: 0).
6 | network_0/router_level2_0 |   Requesting VC 1 at output 9 (in_pri: 0, out_pri: 0).
6 | network_0/router_level2_0 |   Requesting VC 2 at output 9 (in_pri: 0, out_pri: 0).
6 | network_0/router_level2_0 |   Requesting VC 3 at output 9 (in_pri: 0, out_pri: 0).
6 | network_0/router_level2_0/vc_allocator | Input requests = [ 0 -> [ 36@0 37@0 38@0 39@0 ]  8 -> [ 52@0 53@0 54@0 55@0 ]  12 -> [ 52@0 53@0 54@0 55@0 ]  ], output requests = [ 36 -> [ 0@0 ]  37 -> [ 0@0 ]  38 -> [ 0@0 ]  39 -> [ 0@0 ]  52 -> [ 8@0 12@0 ]  53 -> [ 8@0 12@0 ]  54 -> [ 8@0 12@0 ]  55 -> [ 8@0 12@0 ]  ].
6 | network_0/router_level2_0/vc_allocator | Input grants = [ 0 -> 36  8 -> 52  ], output grants = [ 36 -> 0  52 -> 8  ].
6 | network_0/router_level2_0 | Assigning VC 0 at output 9 to VC 0 at input 0.
6 | network_0/router_level2_0 | Completed VC allocation for VC 0 at input 0 (front: 4).
6 | network_0/router_level2_0 |   Acquiring assigned VC 0 at output 9.
6 | network_0/router_level2_0/buf_0/vc_0 | Changing state from vc_alloc to active.
6 | network_0/router_level2_2 | Adding flit 1 to VC 0 at input 0 (state: idle, empty).
6 | network_0/router_level2_2 | Using precomputed lookahead routing information for VC 0 at input 0 (front: 1).
6 | network_0/router_level2_2/buf_0/vc_0 | Changing state from idle to vc_alloc.
6 | network_0/router_level2_2 | Adding flit 10 to VC 0 at input 1 (state: idle, empty).
6 | network_0/router_level2_2 | Using precomputed lookahead routing information for VC 0 at input 1 (front: 10).
6 | network_0/router_level2_2/buf_1/vc_0 | Changing state from idle to vc_alloc.
6 | network_0/router_level2_2 | Beginning VC allocation for VC 0 at input 0 (front: 1).
6 | network_0/router_level2_2 |   Requesting VC 0 at output 13 (in_pri: 0, out_pri: 0).
6 | network_0/router_level2_2 |   Requesting VC 1 at output 13 (in_pri: 0, out_pri: 0).
6 | network_0/router_level2_2 |   Requesting VC 2 at output 13 (in_pri: 0, out_pri: 0).
6 | network_0/router_level2_2 |   Requesting VC 3 at output 13 (in_pri: 0, out_pri: 0).
6 | network_0/router_level2_2 | Beginning VC allocation for VC 0 at input 1 (front: 10).
6 | network_0/router_level2_2 |   Requesting VC 0 at output 12 (in_pri: 0, out_pri: 0).
6 | network_0/router_level2_2 |   Requesting VC 1 at output 12 (in_pri: 0, out_pri: 0).
6 | network_0/router_level2_2 |   Requesting VC 2 at output 12 (in_pri: 0, out_pri: 0).
6 | network_0/router_level2_2 |   Requesting VC 3 at output 12 (in_pri: 0, out_pri: 0).
6 | network_0/router_level2_2/vc_allocator | Input requests = [ 0 -> [ 52@0 53@0 54@0 55@0 ]  4 -> [ 48@0 49@0 50@0 51@0 ]  8 -> [ 32@0 33@0 34@0 35@0 ]  12 -> [ 60@0 61@0 62@0 63@0 ]  24 -> [ 32@0 33@0 34@0 35@0 ]  28 -> [ 48@0 49@0 50@0 51@0 ]  ], output requests = [ 32 -> [ 8@0 24@0 ]  33 -> [ 8@0 24@0 ]  34 -> [ 8@0 24@0 ]  35 -> [ 8@0 24@0 ]  48 -> [ 4@0 28@0 ]  49 -> [ 4@0 28@0 ]  50 -> [ 4@0 28@0 ]  51 -> [ 4@0 28@0 ]  52 -> [ 0@0 ]  53 -> [ 0@0 ]  54 -> [ 0@0 ]  55 -> [ 0@0 ]  60 -> [ 12@0 ]  61 -> [ 12@0 ]  62 -> [ 12@0 ]  63 -> [ 12@0 ]  ].
6 | network_0/router_level2_2/vc_allocator | Input grants = [ 0 -> 52  4 -> 48  8 -> 32  12 -> 60  ], output grants = [ 32 -> 8  48 -> 4  52 -> 0  60 -> 12  ].
6 | network_0/router_level2_2 | Assigning VC 0 at output 13 to VC 0 at input 0.
6 | network_0/router_level2_2 | Assigning VC 0 at output 12 to VC 0 at input 1.
6 | network_0/router_level2_2 | Completed VC allocation for VC 0 at input 0 (front: 1).
6 | network_0/router_level2_2 |   Acquiring assigned VC 0 at output 13.
6 | network_0/router_level2_2/buf_0/vc_0 | Changing state from vc_alloc to active.
6 | network_0/router_level2_2 | Completed VC allocation for VC 0 at input 1 (front: 10).
6 | network_0/router_level2_2 |   Acquiring assigned VC 0 at output 12.
6 | network_0/router_level2_2/buf_1/vc_0 | Changing state from vc_alloc to active.
6 | network_0/router_level2_3 | Adding flit 9 to VC 0 at input 1 (state: idle, empty).
6 | network_0/router_level2_3 | Using precomputed lookahead routing information for VC 0 at input 1 (front: 9).
6 | network_0/router_level2_3/buf_1/vc_0 | Changing state from idle to vc_alloc.
6 | network_0/router_level2_3 | Beginning VC allocation for VC 0 at input 1 (front: 9).
6 | network_0/router_level2_3 |   Requesting VC 0 at output 8 (in_pri: 0, out_pri: 0).
6 | network_0/router_level2_3 |   Requesting VC 1 at output 8 (in_pri: 0, out_pri: 0).
6 | network_0/router_level2_3 |   Requesting VC 2 at output 8 (in_pri: 0, out_pri: 0).
6 | network_0/router_level2_3 |   Requesting VC 3 at output 8 (in_pri: 0, out_pri: 0).
6 | network_0/router_level2_3/vc_allocator | Input requests = [ 4 -> [ 32@0 33@0 34@0 35@0 ]  8 -> [ 48@0 49@0 50@0 51@0 ]  12 -> [ 48@0 49@0 50@0 51@0 ]  16 -> [ 60@0 61@0 62@0 63@0 ]  20 -> [ 32@0 33@0 34@0 35@0 ]  24 -> [ 60@0 61@0 62@0 63@0 ]  28 -> [ 60@0 61@0 62@0 63@0 ]  ], output requests = [ 32 -> [ 4@0 20@0 ]  33 -> [ 4@0 20@0 ]  34 -> [ 4@0 20@0 ]  35 -> [ 4@0 20@0 ]  48 -> [ 8@0 12@0 ]  49 -> [ 8@0 12@0 ]  50 -> [ 8@0 12@0 ]  51 -> [ 8@0 12@0 ]  60 -> [ 16@0 24@0 28@0 ]  61 -> [ 16@0 24@0 28@0 ]  62 -> [ 16@0 24@0 28@0 ]  63 -> [ 16@0 24@0 28@0 ]  ].
6 | network_0/router_level2_3/vc_allocator | Input grants = [ 4 -> 32  8 -> 48  16 -> 60  ], output grants = [ 32 -> 4  48 -> 8  60 -> 16  ].
6 | network_0/router_level2_3 | Assigning VC 0 at output 8 to VC 0 at input 1.
6 | network_0/router_level2_3 | Completed VC allocation for VC 0 at input 1 (front: 9).
6 | network_0/router_level2_3 |   Acquiring assigned VC 0 at output 8.
6 | network_0/router_level2_3/buf_1/vc_0 | Changing state from vc_alloc to active.
6 | network_0/router_level2_4 | Adding flit 6 to VC 0 at input 0 (state: idle, empty).
6 | network_0/router_level2_4 | Using precomputed lookahead routing information for VC 0 at input 0 (front: 6).
6 | network_0/router_level2_4/buf_0/vc_0 | Changing state from idle to vc_alloc.
6 | network_0/router_level2_4 | Beginning VC allocation for VC 0 at input 0 (front: 6).
6 | network_0/router_level2_4 |   Requesting VC 0 at output 15 (in_pri: 0, out_pri: 0).
6 | network_0/router_level2_4 |   Requesting VC 1 at output 15 (in_pri: 0, out_pri: 0).
6 | network_0/router_level2_4 |   Requesting VC 2 at output 15 (in_pri: 0, out_pri: 0).
6 | network_0/router_level2_4 |   Requesting VC 3 at output 15 (in_pri: 0, out_pri: 0).
6 | network_0/router_level2_4/vc_allocator | Input requests = [ 0 -> [ 60@0 61@0 62@0 63@0 ]  8 -> [ 32@0 33@0 34@0 35@0 ]  16 -> [ 52@0 53@0 54@0 55@0 ]  ], output requests = [ 32 -> [ 8@0 ]  33 -> [ 8@0 ]  34 -> [ 8@0 ]  35 -> [ 8@0 ]  52 -> [ 16@0 ]  53 -> [ 16@0 ]  54 -> [ 16@0 ]  55 -> [ 16@0 ]  60 -> [ 0@0 ]  61 -> [ 0@0 ]  62 -> [ 0@0 ]  63 -> [ 0@0 ]  ].
6 | network_0/router_level2_4/vc_allocator | Input grants = [ 0 -> 60  8 -> 32  16 -> 52  ], output grants = [ 32 -> 8  52 -> 16  60 -> 0  ].
6 | network_0/router_level2_4 | Assigning VC 0 at output 15 to VC 0 at input 0.
6 | network_0/router_level2_4 | Completed VC allocation for VC 0 at input 0 (front: 6).
6 | network_0/router_level2_4 |   Acquiring assigned VC 0 at output 15.
6 | network_0/router_level2_4/buf_0/vc_0 | Changing state from vc_alloc to active.
6 | network_0/router_level2_5 | Adding flit 2 to VC 0 at input 0 (state: idle, empty).
6 | network_0/router_level2_5 | Using precomputed lookahead routing information for VC 0 at input 0 (front: 2).
6 | network_0/router_level2_5/buf_0/vc_0 | Changing state from idle to vc_alloc.
6 | network_0/router_level2_5 | Beginning VC allocation for VC 0 at input 0 (front: 2).
6 | network_0/router_level2_5 |   Requesting VC 0 at output 13 (in_pri: 0, out_pri: 0).
6 | network_0/router_level2_5 |   Requesting VC 1 at output 13 (in_pri: 0, out_pri: 0).
6 | network_0/router_level2_5 |   Requesting VC 2 at output 13 (in_pri: 0, out_pri: 0).
6 | network_0/router_level2_5 |   Requesting VC 3 at output 13 (in_pri: 0, out_pri: 0).
6 | network_0/router_level2_5/vc_allocator | Input requests = [ 0 -> [ 52@0 53@0 54@0 55@0 ]  4 -> [ 44@0 45@0 46@0 47@0 ]  12 -> [ 52@0 53@0 54@0 55@0 ]  20 -> [ 52@0 53@0 54@0 55@0 ]  24 -> [ 48@0 49@0 50@0 51@0 ]  28 -> [ 36@0 37@0 38@0 39@0 ]  ], output requests = [ 36 -> [ 28@0 ]  37 -> [ 28@0 ]  38 -> [ 28@0 ]  39 -> [ 28@0 ]  44 -> [ 4@0 ]  45 -> [ 4@0 ]  46 -> [ 4@0 ]  47 -> [ 4@0 ]  48 -> [ 24@0 ]  49 -> [ 24@0 ]  50 -> [ 24@0 ]  51 -> [ 24@0 ]  52 -> [ 0@0 12@0 20@0 ]  53 -> [ 0@0 12@0 20@0 ]  54 -> [ 0@0 12@0 20@0 ]  55 -> [ 0@0 12@0 20@0 ]  ].
6 | network_0/router_level2_5/vc_allocator | Input grants = [ 0 -> 52  4 -> 44  24 -> 48  28 -> 36  ], output grants = [ 36 -> 28  44 -> 4  48 -> 24  52 -> 0  ].
6 | network_0/router_level2_5 | Assigning VC 0 at output 13 to VC 0 at input 0.
6 | network_0/router_level2_5 | Completed VC allocation for VC 0 at input 0 (front: 2).
6 | network_0/router_level2_5 |   Acquiring assigned VC 0 at output 13.
6 | network_0/router_level2_5/buf_0/vc_0 | Changing state from vc_alloc to active.
6 | network_0/router_level2_7 | Adding flit 8 to VC 0 at input 1 (state: idle, empty).
6 | network_0/router_level2_7 | Using precomputed lookahead routing information for VC 0 at input 1 (front: 8).
6 | network_0/router_level2_7/buf_1/vc_0 | Changing state from idle to vc_alloc.
6 | network_0/router_level2_7 | Beginning VC allocation for VC 0 at input 1 (front: 8).
6 | network_0/router_level2_7 |   Requesting VC 0 at output 9 (in_pri: 0, out_pri: 0).
6 | network_0/router_level2_7 |   Requesting VC 1 at output 9 (in_pri: 0, out_pri: 0).
6 | network_0/router_level2_7 |   Requesting VC 2 at output 9 (in_pri: 0, out_pri: 0).
6 | network_0/router_level2_7 |   Requesting VC 3 at output 9 (in_pri: 0, out_pri: 0).
6 | network_0/router_level2_7/vc_allocator | Input requests = [ 4 -> [ 36@0 37@0 38@0 39@0 ]  12 -> [ 32@0 33@0 34@0 35@0 ]  16 -> [ 60@0 61@0 62@0 63@0 ]  20 -> [ 44@0 45@0 46@0 47@0 ]  24 -> [ 36@0 37@0 38@0 39@0 ]  28 -> [ 32@0 33@0 34@0 35@0 ]  ], output requests = [ 32 -> [ 12@0 28@0 ]  33 -> [ 12@0 28@0 ]  34 -> [ 12@0 28@0 ]  35 -> [ 12@0 28@0 ]  36 -> [ 4@0 24@0 ]  37 -> [ 4@0 24@0 ]  38 -> [ 4@0 24@0 ]  39 -> [ 4@0 24@0 ]  44 -> [ 20@0 ]  45 -> [ 20@0 ]  46 -> [ 20@0 ]  47 -> [ 20@0 ]  60 -> [ 16@0 ]  61 -> [ 16@0 ]  62 -> [ 16@0 ]  63 -> [ 16@0 ]  ].
6 | network_0/router_level2_7/vc_allocator | Input grants = [ 4 -> 36  12 -> 32  16 -> 60  20 -> 44  ], output grants = [ 32 -> 12  36 -> 4  44 -> 20  60 -> 16  ].
6 | network_0/router_level2_7 | Assigning VC 0 at output 9 to VC 0 at input 1.
6 | network_0/router_level2_7 | Completed VC allocation for VC 0 at input 1 (front: 8).
6 | network_0/router_level2_7 |   Acquiring assigned VC 0 at output 9.
6 | network_0/router_level2_7/buf_1/vc_0 | Changing state from vc_alloc to active.
6 | network_0/router_level3_0 | Beginning VC allocation for VC 0 at input 5 (front: 5).
6 | network_0/router_level3_0 |   Requesting VC 0 at output 14 (in_pri: 0, out_pri: 0).
6 | network_0/router_level3_0 |   VC 1 at output 14 is in use by VC 1 at input 4 (front flit: 3690).
6 | network_0/router_level3_0 |   Requesting VC 2 at output 14 (in_pri: 0, out_pri: 0).
6 | network_0/router_level3_0 |   Requesting VC 3 at output 14 (in_pri: 0, out_pri: 0).
6 | network_0/router_level3_0 | Beginning VC allocation for VC 0 at input 7 (front: 7).
6 | network_0/router_level3_0 |   Requesting VC 0 at output 13 (in_pri: 0, out_pri: 0).
6 | network_0/router_level3_0 |   VC 1 at output 13 is in use by VC 3 at input 1 (front flit: 11059).
6 | network_0/router_level3_0 |   Requesting VC 2 at output 13 (in_pri: 0, out_pri: 0).
6 | network_0/router_level3_0 |   Requesting VC 3 at output 13 (in_pri: 0, out_pri: 0).
6 | network_0/router_level3_0/vc_allocator | Input requests = [ 0 -> [ 50@0 51@0 ]  2 -> [ 52@0 54@0 55@0 ]  4 -> [ 44@0 46@0 47@0 ]  11 -> [ 40@0 42@0 43@0 ]  12 -> [ 40@0 42@0 43@0 ]  19 -> [ 61@0 62@0 63@0 ]  20 -> [ 56@0 58@0 59@0 ]  24 -> [ 56@0 58@0 59@0 ]  25 -> [ 56@0 58@0 59@0 ]  26 -> [ 52@0 54@0 55@0 ]  27 -> [ 40@0 42@0 43@0 ]  28 -> [ 52@0 54@0 55@0 ]  ], output requests = [ 40 -> [ 11@0 12@0 27@0 ]  42 -> [ 11@0 12@0 27@0 ]  43 -> [ 11@0 12@0 27@0 ]  44 -> [ 4@0 ]  46 -> [ 4@0 ]  47 -> [ 4@0 ]  50 -> [ 0@0 ]  51 -> [ 0@0 ]  52 -> [ 2@0 26@0 28@0 ]  54 -> [ 2@0 26@0 28@0 ]  55 -> [ 2@0 26@0 28@0 ]  56 -> [ 20@0 24@0 25@0 ]  58 -> [ 20@0 24@0 25@0 ]  59 -> [ 20@0 24@0 25@0 ]  61 -> [ 19@0 ]  62 -> [ 19@0 ]  63 -> [ 19@0 ]  ].
6 | network_0/router_level3_0/vc_allocator | Input grants = [ 0 -> 50  4 -> 44  11 -> 40  19 -> 61  20 -> 56  26 -> 52  ], output grants = [ 40 -> 11  44 -> 4  50 -> 0  52 -> 26  56 -> 20  61 -> 19  ].
6 | network_0/router_level3_0 | Assigning VC 0 at output 14 to VC 0 at input 5.
6 | network_0/router_level3_0 | VC allocation failed for VC 0 at input 7.
6 | network_0/router_level3_0 | Beginning crossbar traversal for flit 3 from input 3.0 to output 13.0.
6 | network_0/router_level3_0 | Completed VC allocation for VC 0 at input 5 (front: 5).
6 | network_0/router_level3_0 |   Acquiring assigned VC 0 at output 14.
6 | network_0/router_level3_0/buf_5/vc_0 | Changing state from vc_alloc to active.
6 | network_0/router_level3_0 | Completed VC allocation for VC 0 at input 7 (front: 7).
6 | network_0/router_level3_0 |   No output VC allocated.
6 | network_0/router_level3_0 | Completed crossbar traversal for flit 3 from input 3.0 to output 13.0.
6 | network_0/router_level3_0 | Buffering flit 3 at output 13.
6 | network_0/router_level3_0 | Sending flit 3 to channel at output 13.
7 | network_0/network_0_fchan_20485 | Beginning channel traversal for flit 3 with delay 1.
7 | network_0/router_level2_0 | Beginning switch allocation for VC 0 at input 0 (front: 4).
7 | network_0/router_level2_0 |   Requesting output 9.0 (non-spec, pri: 0).
7 | network_0/router_level2_0/sw_allocator | Input requests = [ 0 -> [ 9@0 ]  2 -> [ 13@0 ]  ], output requests = [ 9 -> [ 0@0 ]  13 -> [ 2@0 ]  ].
7 | network_0/router_level2_0/sw_allocator | Input grants = [ 0 -> 9  2 -> 13  ], output grants = [ 9 -> 0  13 -> 2  ].
7 | network_0/router_level2_0 | Assigning output 9.0 to VC 0 at input 0.0.
7 | network_0/router_level2_0 | Completed switch allocation for VC 0 at input 0 (front: 4).
7 | network_0/router_level2_0 |   Scheduling switch connection from input 0.0 to output 9.0.
7 | network_0/router_level2_0 | Updating lookahead routing information for flit 4.
7 | network_0/router_level2_2 | Beginning switch allocation for VC 0 at input 0 (front: 1).
7 | network_0/router_level2_2 |   Requesting output 13.0 (non-spec, pri: 0).
7 | network_0/router_level2_2 | Beginning switch allocation for VC 0 at input 1 (front: 10).
7 | network_0/router_level2_2 |   Requesting output 12.0 (non-spec, pri: 0).
7 | network_0/router_level2_2/sw_allocator | Input requests = [ 0 -> [ 13@0 ]  1 -> [ 12@0 ]  2 -> [ 8@0 ]  3 -> [ 15@0 ]  ], output requests = [ 8 -> [ 2@0 ]  12 -> [ 1@0 ]  13 -> [ 0@0 ]  15 -> [ 3@0 ]  ].
7 | network_0/router_level2_2/sw_allocator | Input grants = [ 0 -> 13  1 -> 12  2 -> 8  3 -> 15  ], output grants = [ 8 -> 2  12 -> 1  13 -> 0  15 -> 3  ].
7 | network_0/router_level2_2 | Assigning output 13.0 to VC 0 at input 0.0.
7 | network_0/router_level2_2 | Assigning output 12.0 to VC 0 at input 1.0.
7 | network_0/router_level2_2 | Completed switch allocation for VC 0 at input 0 (front: 1).
7 | network_0/router_level2_2 |   Scheduling switch connection from input 0.0 to output 13.0.
7 | network_0/router_level2_2 | Updating lookahead routing information for flit 1.
7 | network_0/router_level2_2 | Completed switch allocation for VC 0 at input 1 (front: 10).
7 | network_0/router_level2_2 |   Scheduling switch connection from input 1.0 to output 12.0.
7 | network_0/router_level2_2 | Updating lookahead routing information for flit 10.
7 | network_0/router_level2_3 | Beginning switch allocation for VC 0 at input 1 (front: 9).
7 | network_0/router_level2_3 |   Requesting output 8.0 (non-spec, pri: 0).
7 | network_0/router_level2_3/sw_allocator | Input requests = [ 1 -> [ 8@0 ]  2 -> [ 12@0 ]  4 -> [ 15@0 ]  ], output requests = [ 8 -> [ 1@0 ]  12 -> [ 2@0 ]  15 -> [ 4@0 ]  ].
7 | network_0/router_level2_3/sw_allocator | Input grants = [ 1 -> 8  2 -> 12  4 -> 15  ], output grants = [ 8 -> 1  12 -> 2  15 -> 4  ].
7 | network_0/router_level2_3 | Assigning output 8.0 to VC 0 at input 1.0.
7 | network_0/router_level2_3 | Completed switch allocation for VC 0 at input 1 (front: 9).
7 | network_0/router_level2_3 |   Scheduling switch connection from input 1.0 to output 8.0.
7 | network_0/router_level2_3 | Updating lookahead routing information for flit 9.
7 | network_0/router_level2_4 | Beginning switch allocation for VC 0 at input 0 (front: 6).
7 | network_0/router_level2_4 |   Requesting output 15.0 (non-spec, pri: 0).
7 | network_0/router_level2_4/sw_allocator | Input requests = [ 0 -> [ 15@0 ]  2 -> [ 8@0 ]  4 -> [ 13@0 ]  ], output requests = [ 8 -> [ 2@0 ]  13 -> [ 4@0 ]  15 -> [ 0@0 ]  ].
7 | network_0/router_level2_4/sw_allocator | Input grants = [ 0 -> 15  2 -> 8  4 -> 13  ], output grants = [ 8 -> 2  13 -> 4  15 -> 0  ].
7 | network_0/router_level2_4 | Assigning output 15.0 to VC 0 at input 0.0.
7 | network_0/router_level2_4 | Completed switch allocation for VC 0 at input 0 (front: 6).
7 | network_0/router_level2_4 |   Scheduling switch connection from input 0.0 to output 15.0.
7 | network_0/router_level2_4 | Updating lookahead routing information for flit 6.
7 | network_0/router_level2_5 | Beginning switch allocation for VC 0 at input 0 (front: 2).
7 | network_0/router_level2_5 |   Requesting output 13.0 (non-spec, pri: 0).
7 | network_0/router_level2_5/sw_allocator | Input requests = [ 0 -> [ 13@0 ]  1 -> [ 11@0 ]  6 -> [ 12@0 ]  7 -> [ 9@0 ]  ], output requests = [ 9 -> [ 7@0 ]  11 -> [ 1@0 ]  12 -> [ 6@0 ]  13 -> [ 0@0 ]  ].
7 | network_0/router_level2_5/sw_allocator | Input grants = [ 0 -> 13  1 -> 11  6 -> 12  7 -> 9  ], output grants = [ 9 -> 7  11 -> 1  12 -> 6  13 -> 0  ].
7 | network_0/router_level2_5 | Assigning output 13.0 to VC 0 at input 0.0.
7 | network_0/router_level2_5 | Completed switch allocation for VC 0 at input 0 (front: 2).
7 | network_0/router_level2_5 |   Scheduling switch connection from input 0.0 to output 13.0.
7 | network_0/router_level2_5 | Updating lookahead routing information for flit 2.
7 | network_0/router_level2_7 | Beginning switch allocation for VC 0 at input 1 (front: 8).
7 | network_0/router_level2_7 |   Requesting output 9.0 (non-spec, pri: 0).
7 | network_0/router_level2_7/sw_allocator | Input requests = [ 1 -> [ 9@0 ]  3 -> [ 8@0 ]  4 -> [ 15@0 ]  5 -> [ 11@0 ]  ], output requests = [ 8 -> [ 3@0 ]  9 -> [ 1@0 ]  11 -> [ 5@0 ]  15 -> [ 4@0 ]  ].
7 | network_0/router_level2_7/sw_allocator | Input grants = [ 1 -> 9  3 -> 8  4 -> 15  5 -> 11  ], output grants = [ 8 -> 3  9 -> 1  11 -> 5  15 -> 4  ].
7 | network_0/router_level2_7 | Assigning output 9.0 to VC 0 at input 1.0.
7 | network_0/router_level2_7 | Completed switch allocation for VC 0 at input 1 (front: 8).
7 | network_0/router_level2_7 |   Scheduling switch connection from input 1.0 to output 9.0.
7 | network_0/router_level2_7 | Updating lookahead routing information for flit 8.
7 | network_0/router_level3_0 | Beginning VC allocation for VC 0 at input 7 (front: 7).
7 | network_0/router_level3_0 |   VC 0 at output 13 is in use by VC 2 at input 6 (front flit: 7388).
7 | network_0/router_level3_0 |   Requesting VC 1 at output 13 (in_pri: 0, out_pri: 0).
7 | network_0/router_level3_0 |   Requesting VC 2 at output 13 (in_pri: 0, out_pri: 0).
7 | network_0/router_level3_0 |   Requesting VC 3 at output 13 (in_pri: 0, out_pri: 0).
7 | network_0/router_level3_0/vc_allocator | Input requests = [ 1 -> [ 33@0 34@0 35@0 ]  2 -> [ 53@0 54@0 55@0 ]  5 -> [ 33@0 34@0 35@0 ]  8 -> [ 33@0 34@0 35@0 ]  12 -> [ 41@0 42@0 43@0 ]  13 -> [ 57@0 58@0 59@0 ]  16 -> [ 49@0 51@0 ]  24 -> [ 57@0 58@0 59@0 ]  25 -> [ 57@0 58@0 59@0 ]  27 -> [ 41@0 42@0 43@0 ]  28 -> [ 53@0 54@0 55@0 ]  ], output requests = [ 33 -> [ 1@0 5@0 8@0 ]  34 -> [ 1@0 5@0 8@0 ]  35 -> [ 1@0 5@0 8@0 ]  41 -> [ 12@0 27@0 ]  42 -> [ 12@0 27@0 ]  43 -> [ 12@0 27@0 ]  49 -> [ 16@0 ]  51 -> [ 16@0 ]  53 -> [ 2@0 28@0 ]  54 -> [ 2@0 28@0 ]  55 -> [ 2@0 28@0 ]  57 -> [ 13@0 24@0 25@0 ]  58 -> [ 13@0 24@0 25@0 ]  59 -> [ 13@0 24@0 25@0 ]  ].
7 | network_0/router_level3_0/vc_allocator | Input grants = [ 1 -> 33  16 -> 49  24 -> 57  27 -> 41  28 -> 53  ], output grants = [ 33 -> 1  41 -> 27  49 -> 16  53 -> 28  57 -> 24  ].
7 | network_0/router_level3_0 | Assigning VC 1 at output 13 to VC 0 at input 7.
7 | network_0/router_level3_0 | Beginning switch allocation for VC 0 at input 5 (front: 5).
7 | network_0/router_level3_0 |   Requesting output 14.0 (non-spec, pri: 0).
7 | network_0/router_level3_0/sw_allocator | Input requests = [ 0 -> [ 12@0 ]  1 -> [ 11@0 ]  2 -> [ 10@0 ]  3 -> [ 12@0 ]  4 -> [ 8@0 15@0 ]  5 -> [ 14@0 15@0 ]  6 -> [ 13@0 ]  ], output requests = [ 8 -> [ 4@0 ]  10 -> [ 2@0 ]  11 -> [ 1@0 ]  12 -> [ 0@0 3@0 ]  13 -> [ 6@0 ]  14 -> [ 5@0 ]  15 -> [ 4@0 5@0 ]  ].
7 | network_0/router_level3_0/sw_allocator | Input grants = [ 1 -> 11  2 -> 10  3 -> 12  4 -> 15  5 -> 14  6 -> 13  ], output grants = [ 10 -> 2  11 -> 1  12 -> 3  13 -> 6  14 -> 5  15 -> 4  ].
7 | network_0/router_level3_0 | Assigning output 14.0 to VC 0 at input 5.0.
7 | network_0/router_level3_0 | Completed VC allocation for VC 0 at input 7 (front: 7).
7 | network_0/router_level3_0 |   Acquiring assigned VC 1 at output 13.
7 | network_0/router_level3_0/buf_7/vc_0 | Changing state from vc_alloc to active.
7 | network_0/router_level3_0 | Completed switch allocation for VC 0 at input 5 (front: 5).
7 | network_0/router_level3_0 |   Scheduling switch connection from input 5.0 to output 14.0.
7 | network_0/router_level3_0 | Updating lookahead routing information for flit 5.
7 | network_0/network_0_fchan_20485 | Completed channel traversal for flit 3.
8 | network_0/router_level2_5 | Received flit 3 from channel at input 0.
8 | network_0/router_level2_0 | Beginning crossbar traversal for flit 4 from input 0.0 to output 9.0.
8 | network_0/router_level2_0 | Completed crossbar traversal for flit 4 from input 0.0 to output 9.0.
8 | network_0/router_level2_0 | Buffering flit 4 at output 9.
8 | network_0/router_level2_2 | Beginning crossbar traversal for flit 1 from input 0.0 to output 13.0.
8 | network_0/router_level2_2 | Beginning crossbar traversal for flit 10 from input 1.0 to output 12.0.
8 | network_0/router_level2_2 | Completed crossbar traversal for flit 1 from input 0.0 to output 13.0.
8 | network_0/router_level2_2 | Buffering flit 1 at output 13.
8 | network_0/router_level2_2 | Completed crossbar traversal for flit 10 from input 1.0 to output 12.0.
8 | network_0/router_level2_2 | Buffering flit 10 at output 12.
8 | network_0/router_level2_3 | Beginning crossbar traversal for flit 9 from input 1.0 to output 8.0.
8 | network_0/router_level2_3 | Completed crossbar traversal for flit 9 from input 1.0 to output 8.0.
8 | network_0/router_level2_3 | Buffering flit 9 at output 8.
8 | network_0/router_level2_4 | Beginning crossbar traversal for flit 6 from input 0.0 to output 15.0.
8 | network_0/router_level2_4 | Completed crossbar traversal for flit 6 from input 0.0 to output 15.0.
8 | network_0/router_level2_4 | Buffering flit 6 at output 15.
8 | network_0/router_level2_5 | Adding flit 3 to VC 0 at input 0 (state: idle, empty).
8 | network_0/router_level2_5 | Using precomputed lookahead routing information for VC 0 at input 0 (front: 3).
8 | network_0/router_level2_5/buf_0/vc_0 | Changing state from idle to vc_alloc.
8 | network_0/router_level2_5 | Beginning VC allocation for VC 0 at input 0 (front: 3).
8 | network_0/router_level2_5 |   Requesting VC 0 at output 13 (in_pri: 0, out_pri: 0).
8 | network_0/router_level2_5 |   VC 1 at output 13 is in use by VC 0 at input 3 (front flit: 28).
8 | network_0/router_level2_5 |   Requesting VC 2 at output 13 (in_pri: 0, out_pri: 0).
8 | network_0/router_level2_5 |   Requesting VC 3 at output 13 (in_pri: 0, out_pri: 0).
8 | network_0/router_level2_5/vc_allocator | Input requests = [ 0 -> [ 52@0 54@0 55@0 ]  4 -> [ 40@0 41@0 42@0 43@0 ]  20 -> [ 52@0 54@0 55@0 ]  24 -> [ 52@0 54@0 55@0 ]  29 -> [ 52@0 54@0 55@0 ]  ], output requests = [ 40 -> [ 4@0 ]  41 -> [ 4@0 ]  42 -> [ 4@0 ]  43 -> [ 4@0 ]  52 -> [ 0@0 20@0 24@0 29@0 ]  54 -> [ 0@0 20@0 24@0 29@0 ]  55 -> [ 0@0 20@0 24@0 29@0 ]  ].
8 | network_0/router_level2_5/vc_allocator | Input grants = [ 0 -> 54  4 -> 40  20 -> 52  ], output grants = [ 40 -> 4  52 -> 20  54 -> 0  ].
8 | network_0/router_level2_5 | Assigning VC 2 at output 13 to VC 0 at input 0.
8 | network_0/router_level2_5 | Beginning crossbar traversal for flit 2 from input 0.0 to output 13.0.
8 | network_0/router_level2_5 | Completed VC allocation for VC 0 at input 0 (front: 3).
8 | network_0/router_level2_5 |   Acquiring assigned VC 2 at output 13.
8 | network_0/router_level2_5/buf_0/vc_0 | Changing state from vc_alloc to active.
8 | network_0/router_level2_5 | Completed crossbar traversal for flit 2 from input 0.0 to output 13.0.
8 | network_0/router_level2_5 | Buffering flit 2 at output 13.
8 | network_0/router_level2_7 | Beginning crossbar traversal for flit 8 from input 1.0 to output 9.0.
8 | network_0/router_level2_7 | Completed crossbar traversal for flit 8 from input 1.0 to output 9.0.
8 | network_0/router_level2_7 | Buffering flit 8 at output 9.
8 | network_0/router_level3_0 | Beginning switch allocation for VC 0 at input 7 (front: 7).
8 | network_0/router_level3_0 |   Requesting output 13.0 (non-spec, pri: 0).
8 | network_0/router_level3_0/sw_allocator | Input requests = [ 0 -> [ 8@0 12@0 ]  4 -> [ 8@0 12@0 ]  5 -> [ 15@0 ]  6 -> [ 10@0 14@0 ]  7 -> [ 13@0 ]  ], output requests = [ 8 -> [ 0@0 4@0 ]  10 -> [ 6@0 ]  12 -> [ 0@0 4@0 ]  13 -> [ 7@0 ]  14 -> [ 6@0 ]  15 -> [ 5@0 ]  ].
8 | network_0/router_level3_0/sw_allocator | Input grants = [ 0 -> 8  5 -> 15  6 -> 14  7 -> 13  ], output grants = [ 8 -> 0  13 -> 7  14 -> 6  15 -> 5  ].
8 | network_0/router_level3_0 | Assigning output 13.0 to VC 0 at input 7.0.
8 | network_0/router_level3_0 | Beginning crossbar traversal for flit 5 from input 5.0 to output 14.0.
8 | network_0/router_level3_0 | Completed switch allocation for VC 0 at input 7 (front: 7).
8 | network_0/router_level3_0 |   Scheduling switch connection from input 7.0 to output 13.0.
8 | network_0/router_level3_0 | Updating lookahead routing information for flit 7.
8 | network_0/router_level3_0 | Completed crossbar traversal for flit 5 from input 5.0 to output 14.0.
8 | network_0/router_level3_0 | Buffering flit 5 at output 14.
8 | network_0/router_level2_0 | Sending flit 4 to channel at output 9.
8 | network_0/router_level2_2 | Sending flit 10 to channel at output 12.
8 | network_0/router_level2_2 | Sending flit 1 to channel at output 13.
8 | network_0/router_level2_3 | Sending flit 9 to channel at output 8.
8 | network_0/router_level2_4 | Sending flit 6 to channel at output 15.
8 | network_0/router_level2_5 | Sending flit 2 to channel at output 13.
8 | network_0/router_level2_7 | Sending flit 8 to channel at output 9.
8 | network_0/router_level3_0 | Sending flit 5 to channel at output 14.
9 | network_0/network_0_fchan_12289 | Beginning channel traversal for flit 4 with delay 1.
9 | network_0/network_0_fchan_12308 | Beginning channel traversal for flit 10 with delay 1.
9 | network_0/network_0_fchan_12309 | Beginning channel traversal for flit 1 with delay 1.
9 | network_0/network_0_fchan_12312 | Beginning channel traversal for flit 9 with delay 1.
9 | network_0/network_0_fchan_12327 | Beginning channel traversal for flit 6 with delay 1.
9 | network_0/network_0_fchan_12333 | Beginning channel traversal for flit 2 with delay 1.
9 | network_0/network_0_fchan_12345 | Beginning channel traversal for flit 8 with delay 1.
9 | network_0/network_0_fchan_20486 | Beginning channel traversal for flit 5 with delay 1.
9 | network_0/router_level2_5 | Beginning switch allocation for VC 0 at input 0 (front: 3).
9 | network_0/router_level2_5 |   Requesting output 13.0 (non-spec, pri: 0).
9 | network_0/router_level2_5/sw_allocator | Input requests = [ 0 -> [ 13@0 ]  1 -> [ 10@0 ]  5 -> [ 13@0 ]  ], output requests = [ 10 -> [ 1@0 ]  13 -> [ 0@0 5@0 ]  ].
9 | network_0/router_level2_5/sw_allocator | Input grants = [ 1 -> 10  5 -> 13  ], output grants = [ 10 -> 1  13 -> 5  ].
9 | network_0/router_level2_5 | Switch allocation failed for VC 0 at input 0: No output granted.
9 | network_0/router_level2_5 | Completed switch allocation for VC 0 at input 0 (front: 3).
9 | network_0/router_level2_5 |   No output port allocated.
9 | network_0/router_level3_0 | Beginning crossbar traversal for flit 7 from input 7.0 to output 13.0.
9 | network_0/router_level3_0 | Completed crossbar traversal for flit 7 from input 7.0 to output 13.0.
9 | network_0/router_level3_0 | Buffering flit 7 at output 13.
9 | network_0/network_0_fchan_12289 | Completed channel traversal for flit 4.
9 | network_0/network_0_fchan_12308 | Completed channel traversal for flit 10.
9 | network_0/network_0_fchan_12309 | Completed channel traversal for flit 1.
9 | network_0/network_0_fchan_12312 | Completed channel traversal for flit 9.
9 | network_0/network_0_fchan_12327 | Completed channel traversal for flit 6.
9 | network_0/network_0_fchan_12333 | Completed channel traversal for flit 2.
9 | network_0/network_0_fchan_12345 | Completed channel traversal for flit 8.
9 | network_0/network_0_fchan_20486 | Completed channel traversal for flit 5.
9 | network_0/router_level3_0 | Sending flit 7 to channel at output 13.
10 | network_0/network_0_fchan_20485 | Beginning channel traversal for flit 7 with delay 1.
10 | network_0/router_level1_3 | Received flit 9 from channel at input 0.
10 | network_0/router_level1_8 | Received flit 4 from channel at input 0.
10 | network_0/router_level1_15 | Received flit 8 from channel at input 0.
10 | network_0/router_level1_34 | Received flit 10 from channel at input 0.
10 | network_0/router_level1_42 | Received flit 1 from channel at input 0.
10 | network_0/router_level1_45 | Received flit 2 from channel at input 0.
10 | network_0/router_level1_60 | Received flit 6 from channel at input 0.
10 | network_0/router_level2_6 | Received flit 5 from channel at input 0.
10 | network_0/router_level1_3 | Adding flit 9 to VC 0 at input 0 (state: idle, empty).
10 | network_0/router_level1_3 | Using precomputed lookahead routing information for VC 0 at input 0 (front: 9).
10 | network_0/router_level1_3/buf_0/vc_0 | Changing state from idle to vc_alloc.
10 | network_0/router_level1_3 | Beginning VC allocation for VC 0 at input 0 (front: 9).
10 | network_0/router_level1_3 |   Requesting VC 0 at output 9 (in_pri: 0, out_pri: 0).
10 | network_0/router_level1_3 |   Requesting VC 1 at output 9 (in_pri: 0, out_pri: 0).
10 | network_0/router_level1_3 |   Requesting VC 2 at output 9 (in_pri: 0, out_pri: 0).
10 | network_0/router_level1_3 |   Requesting VC 3 at output 9 (in_pri: 0, out_pri: 0).
10 | network_0/router_level1_3/vc_allocator | Input requests = [ 0 -> [ 36@0 37@0 38@0 39@0 ]  4 -> [ 36@0 37@0 38@0 39@0 ]  28 -> [ 32@0 33@0 34@0 35@0 ]  ], output requests = [ 32 -> [ 28@0 ]  33 -> [ 28@0 ]  34 -> [ 28@0 ]  35 -> [ 28@0 ]  36 -> [ 0@0 4@0 ]  37 -> [ 0@0 4@0 ]  38 -> [ 0@0 4@0 ]  39 -> [ 0@0 4@0 ]  ].
10 | network_0/router_level1_3/vc_allocator | Input grants = [ 0 -> 36  28 -> 32  ], output grants = [ 32 -> 28  36 -> 0  ].
10 | network_0/router_level1_3 | Assigning VC 0 at output 9 to VC 0 at input 0.
10 | network_0/router_level1_3 | Completed VC allocation for VC 0 at input 0 (front: 9).
10 | network_0/router_level1_3 |   Acquiring assigned VC 0 at output 9.
10 | network_0/router_level1_3/buf_0/vc_0 | Changing state from vc_alloc to active.
10 | network_0/router_level1_8 | Adding flit 4 to VC 0 at input 0 (state: idle, empty).
10 | network_0/router_level1_8 | Using precomputed lookahead routing information for VC 0 at input 0 (front: 4).
10 | network_0/router_level1_8/buf_0/vc_0 | Changing state from idle to vc_alloc.
10 | network_0/router_level1_8 | Beginning VC allocation for VC 0 at input 0 (front: 4).
10 | network_0/router_level1_8 |   Requesting VC 0 at output 8 (in_pri: 0, out_pri: 0).
10 | network_0/router_level1_8 |   Requesting VC 1 at output 8 (in_pri: 0, out_pri: 0).
10 | network_0/router_level1_8 |   Requesting VC 2 at output 8 (in_pri: 0, out_pri: 0).
10 | network_0/router_level1_8 |   Requesting VC 3 at output 8 (in_pri: 0, out_pri: 0).
10 | network_0/router_level1_8/vc_allocator | Input requests = [ 0 -> [ 32@0 33@0 34@0 35@0 ]  4 -> [ 36@0 37@0 38@0 39@0 ]  12 -> [ 36@0 37@0 38@0 39@0 ]  20 -> [ 32@0 33@0 34@0 35@0 ]  28 -> [ 32@0 33@0 34@0 35@0 ]  ], output requests = [ 32 -> [ 0@0 20@0 28@0 ]  33 -> [ 0@0 20@0 28@0 ]  34 -> [ 0@0 20@0 28@0 ]  35 -> [ 0@0 20@0 28@0 ]  36 -> [ 4@0 12@0 ]  37 -> [ 4@0 12@0 ]  38 -> [ 4@0 12@0 ]  39 -> [ 4@0 12@0 ]  ].
10 | network_0/router_level1_8/vc_allocator | Input grants = [ 0 -> 32  4 -> 36  ], output grants = [ 32 -> 0  36 -> 4  ].
10 | network_0/router_level1_8 | Assigning VC 0 at output 8 to VC 0 at input 0.
10 | network_0/router_level1_8 | Completed VC allocation for VC 0 at input 0 (front: 4).
10 | network_0/router_level1_8 |   Acquiring assigned VC 0 at output 8.
10 | network_0/router_level1_8/buf_0/vc_0 | Changing state from vc_alloc to active.
10 | network_0/router_level1_15 | Adding flit 8 to VC 0 at input 0 (state: idle, empty).
10 | network_0/router_level1_15 | Using precomputed lookahead routing information for VC 0 at input 0 (front: 8).
10 | network_0/router_level1_15/buf_0/vc_0 | Changing state from idle to vc_alloc.
10 | network_0/router_level1_15 | Beginning VC allocation for VC 0 at input 0 (front: 8).
10 | network_0/router_level1_15 |   Requesting VC 0 at output 8 (in_pri: 0, out_pri: 0).
10 | network_0/router_level1_15 |   Requesting VC 1 at output 8 (in_pri: 0, out_pri: 0).
10 | network_0/router_level1_15 |   Requesting VC 2 at output 8 (in_pri: 0, out_pri: 0).
10 | network_0/router_level1_15 |   Requesting VC 3 at output 8 (in_pri: 0, out_pri: 0).
10 | network_0/router_level1_15/vc_allocator | Input requests = [ 0 -> [ 32@0 33@0 34@0 35@0 ]  4 -> [ 36@0 37@0 38@0 39@0 ]  16 -> [ 36@0 37@0 38@0 39@0 ]  20 -> [ 32@0 33@0 34@0 35@0 ]  24 -> [ 32@0 33@0 34@0 35@0 ]  ], output requests = [ 32 -> [ 0@0 20@0 24@0 ]  33 -> [ 0@0 20@0 24@0 ]  34 -> [ 0@0 20@0 24@0 ]  35 -> [ 0@0 20@0 24@0 ]  36 -> [ 4@0 16@0 ]  37 -> [ 4@0 16@0 ]  38 -> [ 4@0 16@0 ]  39 -> [ 4@0 16@0 ]  ].
10 | network_0/router_level1_15/vc_allocator | Input grants = [ 0 -> 32  4 -> 36  ], output grants = [ 32 -> 0  36 -> 4  ].
10 | network_0/router_level1_15 | Assigning VC 0 at output 8 to VC 0 at input 0.
10 | network_0/router_level1_15 | Completed VC allocation for VC 0 at input 0 (front: 8).
10 | network_0/router_level1_15 |   Acquiring assigned VC 0 at output 8.
10 | network_0/router_level1_15/buf_0/vc_0 | Changing state from vc_alloc to active.
10 | network_0/router_level1_34 | Adding flit 10 to VC 0 at input 0 (state: idle, empty).
10 | network_0/router_level1_34 | Using precomputed lookahead routing information for VC 0 at input 0 (front: 10).
10 | network_0/router_level1_34/buf_0/vc_0 | Changing state from idle to vc_alloc.
10 | network_0/router_level1_34 | Beginning VC allocation for VC 0 at input 0 (front: 10).
10 | network_0/router_level1_34 |   Requesting VC 0 at output 9 (in_pri: 0, out_pri: 0).
10 | network_0/router_level1_34 |   Requesting VC 1 at output 9 (in_pri: 0, out_pri: 0).
10 | network_0/router_level1_34 |   Requesting VC 2 at output 9 (in_pri: 0, out_pri: 0).
10 | network_0/router_level1_34 |   Requesting VC 3 at output 9 (in_pri: 0, out_pri: 0).
10 | network_0/router_level1_34/vc_allocator | Input requests = [ 0 -> [ 36@0 37@0 38@0 39@0 ]  4 -> [ 32@0 33@0 34@0 35@0 ]  24 -> [ 36@0 37@0 38@0 39@0 ]  28 -> [ 32@0 33@0 34@0 35@0 ]  ], output requests = [ 32 -> [ 4@0 28@0 ]  33 -> [ 4@0 28@0 ]  34 -> [ 4@0 28@0 ]  35 -> [ 4@0 28@0 ]  36 -> [ 0@0 24@0 ]  37 -> [ 0@0 24@0 ]  38 -> [ 0@0 24@0 ]  39 -> [ 0@0 24@0 ]  ].
10 | network_0/router_level1_34/vc_allocator | Input grants = [ 0 -> 36  4 -> 32  ], output grants = [ 32 -> 4  36 -> 0  ].
10 | network_0/router_level1_34 | Assigning VC 0 at output 9 to VC 0 at input 0.
10 | network_0/router_level1_34 | Completed VC allocation for VC 0 at input 0 (front: 10).
10 | network_0/router_level1_34 |   Acquiring assigned VC 0 at output 9.
10 | network_0/router_level1_34/buf_0/vc_0 | Changing state from vc_alloc to active.
10 | network_0/router_level1_42 | Adding flit 1 to VC 0 at input 0 (state: idle, empty).
10 | network_0/router_level1_42 | Using precomputed lookahead routing information for VC 0 at input 0 (front: 1).
10 | network_0/router_level1_42/buf_0/vc_0 | Changing state from idle to vc_alloc.
10 | network_0/router_level1_42 | Beginning VC allocation for VC 0 at input 0 (front: 1).
10 | network_0/router_level1_42 |   Requesting VC 0 at output 8 (in_pri: 0, out_pri: 0).
10 | network_0/router_level1_42 |   Requesting VC 1 at output 8 (in_pri: 0, out_pri: 0).
10 | network_0/router_level1_42 |   Requesting VC 2 at output 8 (in_pri: 0, out_pri: 0).
10 | network_0/router_level1_42 |   Requesting VC 3 at output 8 (in_pri: 0, out_pri: 0).
10 | network_0/router_level1_42/vc_allocator | Input requests = [ 0 -> [ 32@0 33@0 34@0 35@0 ]  4 -> [ 36@0 37@0 38@0 39@0 ]  8 -> [ 32@0 33@0 34@0 35@0 ]  12 -> [ 32@0 33@0 34@0 35@0 ]  16 -> [ 36@0 37@0 38@0 39@0 ]  24 -> [ 36@0 37@0 38@0 39@0 ]  28 -> [ 32@0 33@0 34@0 35@0 ]  ], output requests = [ 32 -> [ 0@0 8@0 12@0 28@0 ]  33 -> [ 0@0 8@0 12@0 28@0 ]  34 -> [ 0@0 8@0 12@0 28@0 ]  35 -> [ 0@0 8@0 12@0 28@0 ]  36 -> [ 4@0 16@0 24@0 ]  37 -> [ 4@0 16@0 24@0 ]  38 -> [ 4@0 16@0 24@0 ]  39 -> [ 4@0 16@0 24@0 ]  ].
10 | network_0/router_level1_42/vc_allocator | Input grants = [ 0 -> 32  4 -> 36  ], output grants = [ 32 -> 0  36 -> 4  ].
10 | network_0/router_level1_42 | Assigning VC 0 at output 8 to VC 0 at input 0.
10 | network_0/router_level1_42 | Completed VC allocation for VC 0 at input 0 (front: 1).
10 | network_0/router_level1_42 |   Acquiring assigned VC 0 at output 8.
10 | network_0/router_level1_42/buf_0/vc_0 | Changing state from vc_alloc to active.
10 | network_0/router_level1_45 | Adding flit 2 to VC 0 at input 0 (state: idle, empty).
10 | network_0/router_level1_45 | Using precomputed lookahead routing information for VC 0 at input 0 (front: 2).
10 | network_0/router_level1_45/buf_0/vc_0 | Changing state from idle to vc_alloc.
10 | network_0/router_level1_45 | Beginning VC allocation for VC 0 at input 0 (front: 2).
10 | network_0/router_level1_45 |   Requesting VC 0 at output 8 (in_pri: 0, out_pri: 0).
10 | network_0/router_level1_45 |   Requesting VC 1 at output 8 (in_pri: 0, out_pri: 0).
10 | network_0/router_level1_45 |   Requesting VC 2 at output 8 (in_pri: 0, out_pri: 0).
10 | network_0/router_level1_45 |   Requesting VC 3 at output 8 (in_pri: 0, out_pri: 0).
10 | network_0/router_level1_45/vc_allocator | Input requests = [ 0 -> [ 32@0 33@0 34@0 35@0 ]  4 -> [ 32@0 33@0 34@0 35@0 ]  28 -> [ 36@0 37@0 38@0 39@0 ]  ], output requests = [ 32 -> [ 0@0 4@0 ]  33 -> [ 0@0 4@0 ]  34 -> [ 0@0 4@0 ]  35 -> [ 0@0 4@0 ]  36 -> [ 28@0 ]  37 -> [ 28@0 ]  38 -> [ 28@0 ]  39 -> [ 28@0 ]  ].
10 | network_0/router_level1_45/vc_allocator | Input grants = [ 0 -> 32  28 -> 36  ], output grants = [ 32 -> 0  36 -> 28  ].
10 | network_0/router_level1_45 | Assigning VC 0 at output 8 to VC 0 at input 0.
10 | network_0/router_level1_45 | Completed VC allocation for VC 0 at input 0 (front: 2).
10 | network_0/router_level1_45 |   Acquiring assigned VC 0 at output 8.
10 | network_0/router_level1_45/buf_0/vc_0 | Changing state from vc_alloc to active.
10 | network_0/router_level1_60 | Adding flit 6 to VC 0 at input 0 (state: idle, empty).
10 | network_0/router_level1_60 | Using precomputed lookahead routing information for VC 0 at input 0 (front: 6).
10 | network_0/router_level1_60/buf_0/vc_0 | Changing state from idle to vc_alloc.
10 | network_0/router_level1_60 | Beginning VC allocation for VC 0 at input 0 (front: 6).
10 | network_0/router_level1_60 |   Requesting VC 0 at output 8 (in_pri: 0, out_pri: 0).
10 | network_0/router_level1_60 |   Requesting VC 1 at output 8 (in_pri: 0, out_pri: 0).
10 | network_0/router_level1_60 |   Requesting VC 2 at output 8 (in_pri: 0, out_pri: 0).
10 | network_0/router_level1_60 |   Requesting VC 3 at output 8 (in_pri: 0, out_pri: 0).
10 | network_0/router_level1_60/vc_allocator | Input requests = [ 0 -> [ 32@0 33@0 34@0 35@0 ]  4 -> [ 36@0 37@0 38@0 39@0 ]  8 -> [ 32@0 33@0 34@0 35@0 ]  16 -> [ 32@0 33@0 34@0 35@0 ]  20 -> [ 32@0 33@0 34@0 35@0 ]  28 -> [ 32@0 33@0 34@0 35@0 ]  ], output requests = [ 32 -> [ 0@0 8@0 16@0 20@0 28@0 ]  33 -> [ 0@0 8@0 16@0 20@0 28@0 ]  34 -> [ 0@0 8@0 16@0 20@0 28@0 ]  35 -> [ 0@0 8@0 16@0 20@0 28@0 ]  36 -> [ 4@0 ]  37 -> [ 4@0 ]  38 -> [ 4@0 ]  39 -> [ 4@0 ]  ].
10 | network_0/router_level1_60/vc_allocator | Input grants = [ 0 -> 32  4 -> 36  ], output grants = [ 32 -> 0  36 -> 4  ].
10 | network_0/router_level1_60 | Assigning VC 0 at output 8 to VC 0 at input 0.
10 | network_0/router_level1_60 | Completed VC allocation for VC 0 at input 0 (front: 6).
10 | network_0/router_level1_60 |   Acquiring assigned VC 0 at output 8.
10 | network_0/router_level1_60/buf_0/vc_0 | Changing state from vc_alloc to active.
10 | network_0/router_level2_5 | Beginning switch allocation for VC 0 at input 0 (front: 3).
10 | network_0/router_level2_5 |   Requesting output 13.0 (non-spec, pri: 0).
10 | network_0/router_level2_5/sw_allocator | Input requests = [ 0 -> [ 13@0 15@0 ]  1 -> [ 14@0 ]  3 -> [ 8@0 ]  4 -> [ 11@0 ]  6 -> [ 13@0 ]  ], output requests = [ 8 -> [ 3@0 ]  11 -> [ 4@0 ]  13 -> [ 0@0 6@0 ]  14 -> [ 1@0 ]  15 -> [ 0@0 ]  ].
10 | network_0/router_level2_5/sw_allocator | Input grants = [ 1 -> 14  3 -> 8  4 -> 11  6 -> 13  ], output grants = [ 8 -> 3  11 -> 4  13 -> 6  14 -> 1  ].
[...]
31 | network_0/router_level1_461/vc_allocator | Input grants = [ 13 -> 36  18 -> 32  33 -> 28  38 -> 20  ], output grants = [ 20 -> 38  28 -> 33  32 -> 18  36 -> 13  ].
31 | network_0/router_level1_461 | Assigning VC 0 at output 7 to VC 1 at input 8.
31 | network_0/router_level1_461 | Completed VC allocation for VC 1 at input 8 (front: 7).
31 | network_0/router_level1_461 |   Acquiring assigned VC 0 at output 7.
31 | network_0/router_level1_461/buf_8/vc_1 | Changing state from vc_alloc to active.
31 | network_0/router_level3_511 | Adding flit 5 to VC 0 at input 14 (state: idle, empty).
31 | network_0/router_level3_511 | Using precomputed lookahead routing information for VC 0 at input 14 (front: 5).
31 | network_0/router_level3_511/buf_14/vc_0 | Changing state from idle to vc_alloc.
31 | network_0/router_level3_511 | Beginning VC allocation for VC 0 at input 14 (front: 5).
31 | network_0/router_level3_511 |   Requesting VC 0 at output 2 (in_pri: 0, out_pri: 0).
31 | network_0/router_level3_511 |   Requesting VC 1 at output 2 (in_pri: 0, out_pri: 0).
31 | network_0/router_level3_511 |   Requesting VC 2 at output 2 (in_pri: 0, out_pri: 0).
31 | network_0/router_level3_511 |   Requesting VC 3 at output 2 (in_pri: 0, out_pri: 0).
31 | network_0/router_level3_511/vc_allocator | Input requests = [ 1 -> [ 38@0 ]  4 -> [ 61@0 63@0 ]  6 -> [ 38@0 ]  8 -> [ 38@0 ]  9 -> [ 48@0 49@0 ]  10 -> [ 33@0 35@0 ]  12 -> [ 38@0 ]  14 -> [ 38@0 ]  16 -> [ 61@0 63@0 ]  17 -> [ 58@0 59@0 ]  18 -> [ 38@0 ]  21 -> [ 48@0 49@0 ]  24 -> [ 44@0 46@0 ]  26 -> [ 42@0 ]  30 -> [ 38@0 ]  56 -> [ 8@0 9@0 10@0 11@0 ]  60 -> [ 12@0 13@0 14@0 15@0 ]  ], output requests = [ 8 -> [ 56@0 ]  9 -> [ 56@0 ]  10 -> [ 56@0 ]  11 -> [ 56@0 ]  12 -> [ 60@0 ]  13 -> [ 60@0 ]  14 -> [ 60@0 ]  15 -> [ 60@0 ]  33 -> [ 10@0 ]  35 -> [ 10@0 ]  38 -> [ 1@0 6@0 8@0 12@0 14@0 18@0 30@0 ]  42 -> [ 26@0 ]  44 -> [ 24@0 ]  46 -> [ 24@0 ]  48 -> [ 9@0 21@0 ]  49 -> [ 9@0 21@0 ]  58 -> [ 17@0 ]  59 -> [ 17@0 ]  61 -> [ 4@0 16@0 ]  63 -> [ 4@0 16@0 ]  ].
31 | network_0/router_level3_511/vc_allocator | Input grants = [ 4 -> 63  6 -> 38  9 -> 48  10 -> 33  16 -> 61  17 -> 58  24 -> 44  26 -> 42  56 -> 8  60 -> 12  ], output grants = [ 8 -> 56  12 -> 60  33 -> 10  38 -> 6  42 -> 26  44 -> 24  48 -> 9  58 -> 17  61 -> 16  63 -> 4  ].
31 | network_0/router_level3_511 | Assigning VC 0 at output 2 to VC 0 at input 14.
31 | network_0/router_level3_511 | Completed VC allocation for VC 0 at input 14 (front: 5).
31 | network_0/router_level3_511 |   Acquiring assigned VC 0 at output 2.
31 | network_0/router_level3_511/buf_14/vc_0 | Changing state from vc_alloc to active.
31 | network_0/network_0_fchan_20463 | Completed channel traversal for flit 3.
32 | network_0/router_level3_511 | Received flit 3 from channel at input 13.
32 | network_0/router_level1_461 | Beginning switch allocation for VC 1 at input 8 (front: 7).
32 | network_0/router_level1_461 |   Requesting output 7.0 (non-spec, pri: 0).
32 | network_0/router_level1_461/sw_allocator | Input requests = [ 1 -> [ 9@0 ]  2 -> [ 8@0 ]  3 -> [ 8@0 9@0 ]  4 -> [ 8@0 ]  7 -> [ 9@0 ]  8 -> [ 7@0 ]  9 -> [ 5@0 ]  ], output requests = [ 5 -> [ 9@0 ]  7 -> [ 8@0 ]  8 -> [ 2@0 3@0 4@0 ]  9 -> [ 1@0 3@0 7@0 ]  ].
32 | network_0/router_level1_461/sw_allocator | Input grants = [ 2 -> 8  3 -> 9  8 -> 7  9 -> 5  ], output grants = [ 5 -> 9  7 -> 8  8 -> 2  9 -> 3  ].
32 | network_0/router_level1_461 | Assigning output 7.0 to VC 1 at input 8.0.
32 | network_0/router_level1_461 | Completed switch allocation for VC 1 at input 8 (front: 7).
32 | network_0/router_level1_461 |   Scheduling switch connection from input 8.0 to output 7.0.
32 | network_0/router_level1_461 | Updating lookahead routing information for flit 7.
32 | network_0/router_level3_511 | Adding flit 3 to VC 0 at input 13 (state: idle, empty).
32 | network_0/router_level3_511 | Using precomputed lookahead routing information for VC 0 at input 13 (front: 3).
32 | network_0/router_level3_511/buf_13/vc_0 | Changing state from idle to vc_alloc.
32 | network_0/router_level3_511 | Beginning VC allocation for VC 0 at input 13 (front: 3).
32 | network_0/router_level3_511 |   Requesting VC 0 at output 4 (in_pri: 0, out_pri: 0).
32 | network_0/router_level3_511 |   Requesting VC 1 at output 4 (in_pri: 0, out_pri: 0).
32 | network_0/router_level3_511 |   Requesting VC 2 at output 4 (in_pri: 0, out_pri: 0).
32 | network_0/router_level3_511 |   Requesting VC 3 at output 4 (in_pri: 0, out_pri: 0).
32 | network_0/router_level3_511/vc_allocator | Input requests = [ 1 -> [ 37@0 ]  3 -> [ 37@0 ]  8 -> [ 37@0 ]  11 -> [ 43@0 ]  12 -> [ 37@0 ]  14 -> [ 37@0 ]  15 -> [ 52@0 53@0 54@0 55@0 ]  18 -> [ 37@0 ]  21 -> [ 49@0 ]  23 -> [ 49@0 ]  28 -> [ 37@0 ]  30 -> [ 37@0 ]  32 -> [ 28@0 29@0 30@0 31@0 ]  52 -> [ 16@0 17@0 18@0 19@0 ]  ], output requests = [ 16 -> [ 52@0 ]  17 -> [ 52@0 ]  18 -> [ 52@0 ]  19 -> [ 52@0 ]  28 -> [ 32@0 ]  29 -> [ 32@0 ]  30 -> [ 32@0 ]  31 -> [ 32@0 ]  37 -> [ 1@0 3@0 8@0 12@0 14@0 18@0 28@0 30@0 ]  43 -> [ 11@0 ]  49 -> [ 21@0 23@0 ]  52 -> [ 15@0 ]  53 -> [ 15@0 ]  54 -> [ 15@0 ]  55 -> [ 15@0 ]  ].
32 | network_0/router_level3_511/vc_allocator | Input grants = [ 11 -> 43  15 -> 52  21 -> 49  28 -> 37  32 -> 28  52 -> 16  ], output grants = [ 16 -> 52  28 -> 32  37 -> 28  43 -> 11  49 -> 21  52 -> 15  ].
32 | network_0/router_level3_511 | Assigning VC 0 at output 4 to VC 0 at input 13.
32 | network_0/router_level3_511 | Beginning switch allocation for VC 0 at input 14 (front: 5).
32 | network_0/router_level3_511 |   Requesting output 2.0 (non-spec, pri: 0).
32 | network_0/router_level3_511/sw_allocator | Input requests = [ 0 -> [ 9@0 12@0 ]  1 -> [ 9@0 10@0 14@0 15@0 ]  2 -> [ 8@0 12@0 ]  3 -> [ 11@0 ]  4 -> [ 10@0 14@0 15@0 ]  5 -> [ 8@0 14@0 ]  6 -> [ 9@0 10@0 11@0 15@0 ]  7 -> [ 8@0 12@0 ]  14 -> [ 2@0 ]  15 -> [ 3@0 ]  ], output requests = [ 2 -> [ 14@0 ]  3 -> [ 15@0 ]  8 -> [ 2@0 5@0 7@0 ]  9 -> [ 0@0 1@0 6@0 ]  10 -> [ 1@0 4@0 6@0 ]  11 -> [ 3@0 6@0 ]  12 -> [ 0@0 2@0 7@0 ]  14 -> [ 1@0 4@0 5@0 ]  15 -> [ 1@0 4@0 6@0 ]  ].
32 | network_0/router_level3_511/sw_allocator | Input grants = [ 1 -> 9  2 -> 8  3 -> 11  4 -> 10  5 -> 14  6 -> 15  7 -> 12  14 -> 2  15 -> 3  ], output grants = [ 2 -> 14  3 -> 15  8 -> 2  9 -> 1  10 -> 4  11 -> 3  12 -> 7  14 -> 5  15 -> 6  ].
32 | network_0/router_level3_511 | Assigning output 2.0 to VC 0 at input 14.0.
32 | network_0/router_level3_511 | Completed VC allocation for VC 0 at input 13 (front: 3).
32 | network_0/router_level3_511 |   Acquiring assigned VC 0 at output 4.
32 | network_0/router_level3_511/buf_13/vc_0 | Changing state from vc_alloc to active.
32 | network_0/router_level3_511 | Completed switch allocation for VC 0 at input 14 (front: 5).
32 | network_0/router_level3_511 |   Scheduling switch connection from input 14.0 to output 2.0.
33 | network_0/router_level1_461 | Beginning crossbar traversal for flit 7 from input 8.0 to output 7.0.
33 | network_0/router_level1_461 | Completed crossbar traversal for flit 7 from input 8.0 to output 7.0.
33 | network_0/router_level1_461 | Buffering flit 7 at output 7.
33 | network_0/router_level3_511 | Beginning switch allocation for VC 0 at input 13 (front: 3).
33 | network_0/router_level3_511 |   Requesting output 4.0 (non-spec, pri: 0).
33 | network_0/router_level3_511/sw_allocator | Input requests = [ 0 -> [ 9@0 12@0 ]  1 -> [ 10@0 14@0 15@0 ]  2 -> [ 10@0 12@0 ]  3 -> [ 13@0 ]  4 -> [ 14@0 15@0 ]  5 -> [ 8@0 12@0 ]  6 -> [ 9@0 10@0 11@0 ]  7 -> [ 8@0 9@0 ]  8 -> [ 7@0 ]  13 -> [ 4@0 ]  ], output requests = [ 4 -> [ 13@0 ]  7 -> [ 8@0 ]  8 -> [ 5@0 7@0 ]  9 -> [ 0@0 6@0 7@0 ]  10 -> [ 1@0 2@0 6@0 ]  11 -> [ 6@0 ]  12 -> [ 0@0 2@0 5@0 ]  13 -> [ 3@0 ]  14 -> [ 1@0 4@0 ]  15 -> [ 1@0 4@0 ]  ].
33 | network_0/router_level3_511/sw_allocator | Input grants = [ 0 -> 12  1 -> 10  3 -> 13  4 -> 14  5 -> 8  6 -> 9  8 -> 7  13 -> 4  ], output grants = [ 4 -> 13  7 -> 8  8 -> 5  9 -> 6  10 -> 1  12 -> 0  13 -> 3  14 -> 4  ].
33 | network_0/router_level3_511 | Assigning output 4.0 to VC 0 at input 13.0.
33 | network_0/router_level3_511 | Beginning crossbar traversal for flit 5 from input 14.0 to output 2.0.
33 | network_0/router_level3_511 | Completed switch allocation for VC 0 at input 13 (front: 3).
33 | network_0/router_level3_511 |   Scheduling switch connection from input 13.0 to output 4.0.
33 | network_0/router_level3_511 | Completed crossbar traversal for flit 5 from input 14.0 to output 2.0.
33 | network_0/router_level3_511 | Buffering flit 5 at output 2.
33 | network_0/router_level1_461 | Sending flit 7 to channel at output 7.
33 | network_0/router_level3_511 | Sending flit 5 to channel at output 2.
34 | network_0/network_0_fchan_egress4090 | Beginning channel traversal for flit 5 with delay 1.
34 | network_0/network_0_fchan_11887 | Beginning channel traversal for flit 7 with delay 1.
34 | network_0/router_level3_511 | Beginning crossbar traversal for flit 3 from input 13.0 to output 4.0.
34 | network_0/router_level3_511 | Completed crossbar traversal for flit 3 from input 13.0 to output 4.0.
34 | network_0/router_level3_511 | Buffering flit 3 at output 4.
34 | network_0/network_0_fchan_egress4090 | Completed channel traversal for flit 5.
34 | network_0/network_0_fchan_11887 | Completed channel traversal for flit 7.
34 | network_0/router_level3_511 | Sending flit 3 to channel at output 4.
35 | node4090 | Ejecting flit 5 (packet 5) from VC 0.
35 | network_0/network_0_fchan_egress4092 | Beginning channel traversal for flit 3 with delay 1.
35 | network_0/router_level2_509 | Received flit 7 from channel at input 9.
35 | node4090 | Injecting credit for VC 0 into subnet 0.
35 | node4090 | Retiring flit 5 (packet 5, src = 5, dest = 4090, hops = 7, flat = 35).
35 | node4090 | Retiring packet 5 (plat = 35, nlat = 35, frag = 0, src = 5, dest = 4090).
35 | network_0/router_level2_509 | Adding flit 7 to VC 0 at input 9 (state: idle, empty).
35 | network_0/router_level2_509 | Using precomputed lookahead routing information for VC 0 at input 9 (front: 7).
35 | network_0/router_level2_509/buf_9/vc_0 | Changing state from idle to vc_alloc.
35 | network_0/router_level2_509 | Beginning VC allocation for VC 0 at input 9 (front: 7).
35 | network_0/router_level2_509 |   VC 0 at output 7 is in use by VC 0 at input 12 (front flit: 22163).
35 | network_0/router_level2_509 |   Requesting VC 1 at output 7 (in_pri: 0, out_pri: 0).
35 | network_0/router_level2_509 |   Requesting VC 2 at output 7 (in_pri: 0, out_pri: 0).
35 | network_0/router_level2_509 |   Requesting VC 3 at output 7 (in_pri: 0, out_pri: 0).
35 | network_0/router_level2_509/vc_allocator | Input requests = [ 3 -> [ 46@0 47@0 ]  6 -> [ 33@0 34@0 35@0 ]  12 -> [ 55@0 ]  20 -> [ 41@0 42@0 43@0 ]  21 -> [ 55@0 ]  36 -> [ 29@0 30@0 31@0 ]  52 -> [ 5@0 6@0 7@0 ]  ], output requests = [ 5 -> [ 52@0 ]  6 -> [ 52@0 ]  7 -> [ 52@0 ]  29 -> [ 36@0 ]  30 -> [ 36@0 ]  31 -> [ 36@0 ]  33 -> [ 6@0 ]  34 -> [ 6@0 ]  35 -> [ 6@0 ]  41 -> [ 20@0 ]  42 -> [ 20@0 ]  43 -> [ 20@0 ]  46 -> [ 3@0 ]  47 -> [ 3@0 ]  55 -> [ 12@0 21@0 ]  ].
35 | network_0/router_level2_509/vc_allocator | Input grants = [ 3 -> 46  6 -> 33  12 -> 55  20 -> 41  36 -> 29  52 -> 5  ], output grants = [ 5 -> 52  29 -> 36  33 -> 6  41 -> 20  46 -> 3  55 -> 12  ].
35 | network_0/router_level2_509 | Assigning VC 1 at output 7 to VC 0 at input 9.
35 | network_0/router_level2_509 | Completed VC allocation for VC 0 at input 9 (front: 7).
35 | network_0/router_level2_509 |   Acquiring assigned VC 1 at output 7.
35 | network_0/router_level2_509/buf_9/vc_0 | Changing state from vc_alloc to active.
35 | network_0/network_0_fchan_egress4092 | Completed channel traversal for flit 3.
36 | node4092 | Ejecting flit 3 (packet 3) from VC 0.
36 | node4092 | Injecting credit for VC 0 into subnet 0.
36 | node4092 | Retiring flit 3 (packet 3, src = 3, dest = 4092, hops = 7, flat = 36).
36 | node4092 | Retiring packet 3 (plat = 36, nlat = 36, frag = 0, src = 3, dest = 4092).
36 | network_0/router_level2_509 | Beginning switch allocation for VC 0 at input 9 (front: 7).
36 | network_0/router_level2_509 |   Requesting output 7.0 (non-spec, pri: 0).
36 | network_0/router_level2_509/sw_allocator | Input requests = [ 0 -> [ 11@0 13@0 ]  1 -> [ 8@0 ]  2 -> [ 9@0 11@0 ]  3 -> [ 13@0 ]  5 -> [ 10@0 ]  6 -> [ 13@0 ]  7 -> [ 9@0 ]  9 -> [ 7@0 ]  13 -> [ 1@0 ]  ], output requests = [ 1 -> [ 13@0 ]  7 -> [ 9@0 ]  8 -> [ 1@0 ]  9 -> [ 2@0 7@0 ]  10 -> [ 5@0 ]  11 -> [ 0@0 2@0 ]  13 -> [ 0@0 3@0 6@0 ]  ].
36 | network_0/router_level2_509/sw_allocator | Input grants = [ 0 -> 11  1 -> 8  3 -> 13  5 -> 10  7 -> 9  9 -> 7  13 -> 1  ], output grants = [ 1 -> 13  7 -> 9  8 -> 1  9 -> 7  10 -> 5  11 -> 0  13 -> 3  ].
36 | network_0/router_level2_509 | Assigning output 7.0 to VC 0 at input 9.0.
36 | network_0/router_level2_509 | Completed switch allocation for VC 0 at input 9 (front: 7).
36 | network_0/router_level2_509 |   Scheduling switch connection from input 9.0 to output 7.0.
36 | network_0/router_level2_509 | Updating lookahead routing information for flit 7.
37 | network_0/router_level2_509 | Beginning crossbar traversal for flit 7 from input 9.0 to output 7.0.
37 | network_0/router_level2_509 | Completed crossbar traversal for flit 7 from input 9.0 to output 7.0.
37 | network_0/router_level2_509 | Buffering flit 7 at output 7.
37 | network_0/router_level2_509 | Sending flit 7 to channel at output 7.
38 | network_0/network_0_fchan_20463 | Beginning channel traversal for flit 7 with delay 1.
38 | network_0/network_0_fchan_20463 | Completed channel traversal for flit 7.
39 | network_0/router_level3_511 | Received flit 7 from channel at input 13.
39 | network_0/router_level3_511 | Adding flit 7 to VC 1 at input 13 (state: idle, empty).
39 | network_0/router_level3_511 | Using precomputed lookahead routing information for VC 1 at input 13 (front: 7).
39 | network_0/router_level3_511/buf_13/vc_1 | Changing state from idle to vc_alloc.
39 | network_0/router_level3_511 | Beginning VC allocation for VC 1 at input 13 (front: 7).
39 | network_0/router_level3_511 |   Requesting VC 0 at output 0 (in_pri: 0, out_pri: 0).
39 | network_0/router_level3_511 |   Requesting VC 1 at output 0 (in_pri: 0, out_pri: 0).
39 | network_0/router_level3_511 |   Requesting VC 2 at output 0 (in_pri: 0, out_pri: 0).
39 | network_0/router_level3_511 |   Requesting VC 3 at output 0 (in_pri: 0, out_pri: 0).
39 | network_0/router_level3_511/vc_allocator | Input requests = [ 0 -> [ 55@0 ]  4 -> [ 55@0 ]  6 -> [ 40@0 42@0 43@0 ]  7 -> [ 32@0 34@0 35@0 ]  9 -> [ 55@0 ]  13 -> [ 57@0 58@0 59@0 ]  19 -> [ 62@0 63@0 ]  24 -> [ 55@0 ]  25 -> [ 45@0 47@0 ]  26 -> [ 62@0 63@0 ]  40 -> [ 4@0 5@0 6@0 7@0 ]  53 -> [ 0@0 1@0 2@0 3@0 ]  ], output requests = [ 0 -> [ 53@0 ]  1 -> [ 53@0 ]  2 -> [ 53@0 ]  3 -> [ 53@0 ]  4 -> [ 40@0 ]  5 -> [ 40@0 ]  6 -> [ 40@0 ]  7 -> [ 40@0 ]  32 -> [ 7@0 ]  34 -> [ 7@0 ]  35 -> [ 7@0 ]  40 -> [ 6@0 ]  42 -> [ 6@0 ]  43 -> [ 6@0 ]  45 -> [ 25@0 ]  47 -> [ 25@0 ]  55 -> [ 0@0 4@0 9@0 24@0 ]  57 -> [ 13@0 ]  58 -> [ 13@0 ]  59 -> [ 13@0 ]  62 -> [ 19@0 26@0 ]  63 -> [ 19@0 26@0 ]  ].
39 | network_0/router_level3_511/vc_allocator | Input grants = [ 0 -> 55  6 -> 40  7 -> 32  13 -> 57  19 -> 62  25 -> 45  40 -> 4  53 -> 0  ], output grants = [ 0 -> 53  4 -> 40  32 -> 7  40 -> 6  45 -> 25  55 -> 0  57 -> 13  62 -> 19  ].
39 | network_0/router_level3_511 | Assigning VC 0 at output 0 to VC 1 at input 13.
39 | network_0/router_level3_511 | Completed VC allocation for VC 1 at input 13 (front: 7).
39 | network_0/router_level3_511 |   Acquiring assigned VC 0 at output 0.
39 | network_0/router_level3_511/buf_13/vc_1 | Changing state from vc_alloc to active.
40 | network_0/router_level3_511 | Beginning switch allocation for VC 1 at input 13 (front: 7).
40 | network_0/router_level3_511 |   Requesting output 0.0 (non-spec, pri: 0).
40 | network_0/router_level3_511/sw_allocator | Input requests = [ 0 -> [ 13@0 15@0 ]  1 -> [ 8@0 10@0 ]  2 -> [ 10@0 12@0 ]  3 -> [ 9@0 13@0 14@0 ]  4 -> [ 8@0 13@0 15@0 ]  5 -> [ 11@0 ]  6 -> [ 11@0 ]  7 -> [ 9@0 ]  10 -> [ 1@0 ]  13 -> [ 0@0 ]  ], output requests = [ 0 -> [ 13@0 ]  1 -> [ 10@0 ]  8 -> [ 1@0 4@0 ]  9 -> [ 3@0 7@0 ]  10 -> [ 1@0 2@0 ]  11 -> [ 5@0 6@0 ]  12 -> [ 2@0 ]  13 -> [ 0@0 3@0 4@0 ]  14 -> [ 3@0 ]  15 -> [ 0@0 4@0 ]  ].
40 | network_0/router_level3_511/sw_allocator | Input grants = [ 1 -> 8  2 -> 10  3 -> 13  5 -> 11  7 -> 9  10 -> 1  13 -> 0  ], output grants = [ 0 -> 13  1 -> 10  8 -> 1  9 -> 7  10 -> 2  11 -> 5  13 -> 3  ].
40 | network_0/router_level3_511 | Assigning output 0.0 to VC 1 at input 13.0.
40 | network_0/router_level3_511 | Completed switch allocation for VC 1 at input 13 (front: 7).
40 | network_0/router_level3_511 |   Scheduling switch connection from input 13.0 to output 0.0.
41 | network_0/router_level3_511 | Beginning crossbar traversal for flit 7 from input 13.0 to output 0.0.
41 | network_0/router_level3_511 | Completed crossbar traversal for flit 7 from input 13.0 to output 0.0.
41 | network_0/router_level3_511 | Buffering flit 7 at output 0.
41 | network_0/router_level3_511 | Sending flit 7 to channel at output 0.
42 | network_0/network_0_fchan_egress4088 | Beginning channel traversal for flit 7 with delay 1.
42 | network_0/network_0_fchan_egress4088 | Completed channel traversal for flit 7.
43 | node4088 | Ejecting flit 7 (packet 7) from VC 0.
43 | node4088 | Injecting credit for VC 0 into subnet 0.
43 | node4088 | Retiring flit 7 (packet 7, src = 7, dest = 4088, hops = 7, flat = 43).
43 | node4088 | Retiring packet 7 (plat = 43, nlat = 43, frag = 0, src = 7, dest = 4088).
Class 0:
Packet latency average = 379.305
	minimum = 30
	maximum = 899
Network latency average = 372.587
	minimum = 30
	maximum = 899
Slowest packet = 356399
Flit latency average = 372.587
	minimum = 30
	maximum = 899
Slowest flit = 356399
Fragmentation average = 0
	minimum = 0
	maximum = 0
Injected packet rate average = 0.399446
	minimum = 0.307 (at node 372)
	maximum = 0.514 (at node 2184)
Accepted packet rate average = 0.235172
	minimum = 0.177 (at node 1377)
	maximum = 0.293 (at node 847)
Injected flit rate average = 0.399446
	minimum = 0.307 (at node 372)
	maximum = 0.514 (at node 2184)
Accepted flit rate average= 0.235172
	minimum = 0.177 (at node 1377)
	maximum = 0.293 (at node 847)
Injected packet length average = 1
Accepted packet length average = 1
Total in-flight flits = 676020 (0 measured)
latency change    = 1
throughput change = 1
Class 0:
Packet latency average = 745.276
	minimum = 30
	maximum = 1757
Network latency average = 530.429
	minimum = 30
	maximum = 1757
Slowest packet = 872858
Flit latency average = 530.429
	minimum = 30
	maximum = 1757
Slowest flit = 872858
Fragmentation average = 0
	minimum = 0
	maximum = 0
Injected packet rate average = 0.317515
	minimum = 0.2335 (at node 2792)
	maximum = 0.3935 (at node 829)
Accepted packet rate average = 0.238583
	minimum = 0.176 (at node 1684)
	maximum = 0.304 (at node 1911)
Injected flit rate average = 0.317515
	minimum = 0.2335 (at node 2792)
	maximum = 0.3935 (at node 829)
Accepted flit rate average= 0.238583
	minimum = 0.176 (at node 1684)
	maximum = 0.304 (at node 1911)
Injected packet length average = 1
Accepted packet length average = 1
Total in-flight flits = 649755 (0 measured)
latency change    = 0.491054
throughput change = 0.0142995
Average latency for class 0 exceeded 500 cycles. Aborting simulation.
Too many sample periods needed to converge
Simulation unstable, ending ...
Total run time 358.02
