BEGIN Configuration File: examples/fattree_config_0.25_4_uniform
// $Id: dragonflyconfig 3555 2011-05-16 23:37:55Z dub $

// Copyright (c) 2007-2015, Trustees of The Leland Stanford Junior University
// All rights reserved.
//
// Redistribution and use in source and binary forms, with or without
// modification, are permitted provided that the following conditions are met:
//
// Redistributions of source code must retain the above copyright notice, this
// list of conditions and the following disclaimer.
// Redistributions in binary form must reproduce the above copyright notice,
// this list of conditions and the following disclaimer in the documentation
// and/or other materials provided with the distribution.
//
// THIS SOFTWARE IS PROVIDED BY THE COPYRIGHT HOLDERS AND CONTRIBUTORS "AS IS"
// AND ANY EXPRESS OR IMPLIED WARRANTIES, INCLUDING, BUT NOT LIMITED TO, THE
// IMPLIED WARRANTIES OF MERCHANTABILITY AND FITNESS FOR A PARTICULAR PURPOSE
// ARE DISCLAIMED. IN NO EVENT SHALL THE COPYRIGHT OWNER OR CONTRIBUTORS BE
// LIABLE FOR ANY DIRECT, INDIRECT, INCIDENTAL, SPECIAL, EXEMPLARY, OR
// CONSEQUENTIAL DAMAGES (INCLUDING, BUT NOT LIMITED TO, PROCUREMENT OF
// SUBSTITUTE GOODS OR SERVICES; LOSS OF USE, DATA, OR PROFITS; OR BUSINESS
// INTERRUPTION) HOWEVER CAUSED AND ON ANY THEORY OF LIABILITY, WHETHER IN
// CONTRACT, STRICT LIABILITY, OR TORT (INCLUDING NEGLIGENCE OR OTHERWISE)
// ARISING IN ANY WAY OUT OF THE USE OF THIS SOFTWARE, EVEN IF ADVISED OF THE
// POSSIBILITY OF SUCH DAMAGE.


hold_switch_for_packet=1;

vc_buf_size = 16;


wait_for_tail_credit = 0;

//
// Router architecture
//
vc_allocator = separable_input_first; 
sw_allocator = separable_input_first;
alloc_iters  = 1;

credit_delay   = 2;
routing_delay  = 0;
vc_alloc_delay = 1;
sw_alloc_delay = 1;
st_final_delay = 1;

input_speedup     = 1;
output_speedup    = 1;
internal_speedup  = 1.0;


warmup_periods = 3;
sim_count          = 1;

sample_period  = 1000;  

routing_function = nca;
num_vcs     = 4;

priority = none;
traffic = uniform;


injection_rate = 0.25;
packet_size = 1;
injection_rate_uses_flits=1;

topology = fattree;

k  = 8;
n  = 4;
t = 4;

watch_file = watchfile.txt;
watch_out=-;
stats_out = examples/fattree_config_0.25_4_uniform.m;

END Configuration File: examples/fattree_config_0.25_4_uniform
Fat Tree
 k = 8 levels = 4
 each switch - total radix =  16
 # of switches = 2048
 # of channels = 24576
 # of nodes ( size of network ) = 4096
 tapering factor = 4
0 | node15 | Enqueuing flit 1 (packet 1) at time 0.
0 | node18 | Enqueuing flit 2 (packet 2) at time 0.
0 | node31 | Enqueuing flit 3 (packet 3) at time 0.
0 | node34 | Enqueuing flit 4 (packet 4) at time 0.
0 | node40 | Enqueuing flit 5 (packet 5) at time 0.
0 | node47 | Enqueuing flit 6 (packet 6) at time 0.
0 | node53 | Enqueuing flit 7 (packet 7) at time 0.
0 | node54 | Enqueuing flit 8 (packet 8) at time 0.
0 | node55 | Enqueuing flit 9 (packet 9) at time 0.
0 | node58 | Enqueuing flit 10 (packet 10) at time 0.
0 | traffic_manager | Finding output VC for flit 1:
0 | traffic_manager |   Selected output VC 0.
0 | node15 | Generating lookahead routing info for flit 1.
0 | node15 | Injecting flit 1 into subnet 0 at time 0 with priority 0.
0 | traffic_manager | Finding output VC for flit 2:
0 | traffic_manager |   Selected output VC 0.
0 | node18 | Generating lookahead routing info for flit 2.
0 | node18 | Injecting flit 2 into subnet 0 at time 0 with priority 0.
0 | traffic_manager | Finding output VC for flit 3:
0 | traffic_manager |   Selected output VC 0.
0 | node31 | Generating lookahead routing info for flit 3.
0 | node31 | Injecting flit 3 into subnet 0 at time 0 with priority 0.
0 | traffic_manager | Finding output VC for flit 4:
0 | traffic_manager |   Selected output VC 0.
0 | node34 | Generating lookahead routing info for flit 4.
0 | node34 | Injecting flit 4 into subnet 0 at time 0 with priority 0.
0 | traffic_manager | Finding output VC for flit 5:
0 | traffic_manager |   Selected output VC 0.
0 | node40 | Generating lookahead routing info for flit 5.
0 | node40 | Injecting flit 5 into subnet 0 at time 0 with priority 0.
0 | traffic_manager | Finding output VC for flit 6:
0 | traffic_manager |   Selected output VC 0.
0 | node47 | Generating lookahead routing info for flit 6.
0 | node47 | Injecting flit 6 into subnet 0 at time 0 with priority 0.
0 | traffic_manager | Finding output VC for flit 7:
0 | traffic_manager |   Selected output VC 0.
0 | node53 | Generating lookahead routing info for flit 7.
0 | node53 | Injecting flit 7 into subnet 0 at time 0 with priority 0.
0 | traffic_manager | Finding output VC for flit 8:
0 | traffic_manager |   Selected output VC 0.
0 | node54 | Generating lookahead routing info for flit 8.
0 | node54 | Injecting flit 8 into subnet 0 at time 0 with priority 0.
0 | traffic_manager | Finding output VC for flit 9:
0 | traffic_manager |   Selected output VC 0.
0 | node55 | Generating lookahead routing info for flit 9.
0 | node55 | Injecting flit 9 into subnet 0 at time 0 with priority 0.
0 | traffic_manager | Finding output VC for flit 10:
0 | traffic_manager |   Selected output VC 0.
0 | node58 | Generating lookahead routing info for flit 10.
0 | node58 | Injecting flit 10 into subnet 0 at time 0 with priority 0.
1 | network_0/network_0_fchan_ingress15 | Beginning channel traversal for flit 1 with delay 1.
1 | network_0/network_0_fchan_ingress18 | Beginning channel traversal for flit 2 with delay 1.
1 | network_0/network_0_fchan_ingress31 | Beginning channel traversal for flit 3 with delay 1.
1 | network_0/network_0_fchan_ingress34 | Beginning channel traversal for flit 4 with delay 1.
1 | network_0/network_0_fchan_ingress40 | Beginning channel traversal for flit 5 with delay 1.
1 | network_0/network_0_fchan_ingress47 | Beginning channel traversal for flit 6 with delay 1.
1 | network_0/network_0_fchan_ingress53 | Beginning channel traversal for flit 7 with delay 1.
1 | network_0/network_0_fchan_ingress54 | Beginning channel traversal for flit 8 with delay 1.
1 | network_0/network_0_fchan_ingress55 | Beginning channel traversal for flit 9 with delay 1.
1 | network_0/network_0_fchan_ingress58 | Beginning channel traversal for flit 10 with delay 1.
1 | network_0/network_0_fchan_ingress15 | Completed channel traversal for flit 1.
1 | network_0/network_0_fchan_ingress18 | Completed channel traversal for flit 2.
1 | network_0/network_0_fchan_ingress31 | Completed channel traversal for flit 3.
1 | network_0/network_0_fchan_ingress34 | Completed channel traversal for flit 4.
1 | network_0/network_0_fchan_ingress40 | Completed channel traversal for flit 5.
1 | network_0/network_0_fchan_ingress47 | Completed channel traversal for flit 6.
1 | network_0/network_0_fchan_ingress53 | Completed channel traversal for flit 7.
1 | network_0/network_0_fchan_ingress54 | Completed channel traversal for flit 8.
1 | network_0/network_0_fchan_ingress55 | Completed channel traversal for flit 9.
1 | network_0/network_0_fchan_ingress58 | Completed channel traversal for flit 10.
2 | network_0/router_level3_1 | Received flit 1 from channel at input 7.
2 | network_0/router_level3_2 | Received flit 2 from channel at input 2.
2 | network_0/router_level3_3 | Received flit 3 from channel at input 7.
2 | network_0/router_level3_4 | Received flit 4 from channel at input 2.
2 | network_0/router_level3_5 | Received flit 5 from channel at input 0.
2 | network_0/router_level3_5 | Received flit 6 from channel at input 7.
2 | network_0/router_level3_6 | Received flit 7 from channel at input 5.
2 | network_0/router_level3_6 | Received flit 8 from channel at input 6.
2 | network_0/router_level3_6 | Received flit 9 from channel at input 7.
2 | network_0/router_level3_7 | Received flit 10 from channel at input 2.
2 | network_0/router_level3_1 | Adding flit 1 to VC 0 at input 7 (state: idle, empty).
2 | network_0/router_level3_1 | Using precomputed lookahead routing information for VC 0 at input 7 (front: 1).
2 | network_0/router_level3_1/buf_7/vc_0 | Changing state from idle to vc_alloc.
2 | network_0/router_level3_1 | Beginning VC allocation for VC 0 at input 7 (front: 1).
2 | network_0/router_level3_1 |   Requesting VC 0 at output 11 (in_pri: 0, out_pri: 0).
2 | network_0/router_level3_1 |   Requesting VC 1 at output 11 (in_pri: 0, out_pri: 0).
2 | network_0/router_level3_1 |   Requesting VC 2 at output 11 (in_pri: 0, out_pri: 0).
2 | network_0/router_level3_1 |   Requesting VC 3 at output 11 (in_pri: 0, out_pri: 0).
2 | network_0/router_level3_1/vc_allocator | Input requests = [ 20 -> [ 56@0 57@0 58@0 59@0 ]  28 -> [ 44@0 45@0 46@0 47@0 ]  ], output requests = [ 44 -> [ 28@0 ]  45 -> [ 28@0 ]  46 -> [ 28@0 ]  47 -> [ 28@0 ]  56 -> [ 20@0 ]  57 -> [ 20@0 ]  58 -> [ 20@0 ]  59 -> [ 20@0 ]  ].
2 | network_0/router_level3_1/vc_allocator | Input grants = [ 20 -> 56  28 -> 44  ], output grants = [ 44 -> 28  56 -> 20  ].
2 | network_0/router_level3_1 | Assigning VC 0 at output 11 to VC 0 at input 7.
2 | network_0/router_level3_1 | Completed VC allocation for VC 0 at input 7 (front: 1).
2 | network_0/router_level3_1 |   Acquiring assigned VC 0 at output 11.
2 | network_0/router_level3_1/buf_7/vc_0 | Changing state from vc_alloc to active.
2 | network_0/router_level3_2 | Adding flit 2 to VC 0 at input 2 (state: idle, empty).
2 | network_0/router_level3_2 | Using precomputed lookahead routing information for VC 0 at input 2 (front: 2).
2 | network_0/router_level3_2/buf_2/vc_0 | Changing state from idle to vc_alloc.
2 | network_0/router_level3_2 | Beginning VC allocation for VC 0 at input 2 (front: 2).
2 | network_0/router_level3_2 |   Requesting VC 0 at output 12 (in_pri: 0, out_pri: 0).
2 | network_0/router_level3_2 |   Requesting VC 1 at output 12 (in_pri: 0, out_pri: 0).
2 | network_0/router_level3_2 |   Requesting VC 2 at output 12 (in_pri: 0, out_pri: 0).
2 | network_0/router_level3_2 |   Requesting VC 3 at output 12 (in_pri: 0, out_pri: 0).
2 | network_0/router_level3_2/vc_allocator | Input requests = [ 8 -> [ 48@0 49@0 50@0 51@0 ]  ], output requests = [ 48 -> [ 8@0 ]  49 -> [ 8@0 ]  50 -> [ 8@0 ]  51 -> [ 8@0 ]  ].
2 | network_0/router_level3_2/vc_allocator | Input grants = [ 8 -> 48  ], output grants = [ 48 -> 8  ].
2 | network_0/router_level3_2 | Assigning VC 0 at output 12 to VC 0 at input 2.
2 | network_0/router_level3_2 | Completed VC allocation for VC 0 at input 2 (front: 2).
2 | network_0/router_level3_2 |   Acquiring assigned VC 0 at output 12.
2 | network_0/router_level3_2/buf_2/vc_0 | Changing state from vc_alloc to active.
2 | network_0/router_level3_3 | Adding flit 3 to VC 0 at input 7 (state: idle, empty).
2 | network_0/router_level3_3 | Using precomputed lookahead routing information for VC 0 at input 7 (front: 3).
2 | network_0/router_level3_3/buf_7/vc_0 | Changing state from idle to vc_alloc.
2 | network_0/router_level3_3 | Beginning VC allocation for VC 0 at input 7 (front: 3).
2 | network_0/router_level3_3 |   Requesting VC 0 at output 10 (in_pri: 0, out_pri: 0).
2 | network_0/router_level3_3 |   Requesting VC 1 at output 10 (in_pri: 0, out_pri: 0).
2 | network_0/router_level3_3 |   Requesting VC 2 at output 10 (in_pri: 0, out_pri: 0).
2 | network_0/router_level3_3 |   Requesting VC 3 at output 10 (in_pri: 0, out_pri: 0).
2 | network_0/router_level3_3/vc_allocator | Input requests = [ 28 -> [ 40@0 41@0 42@0 43@0 ]  ], output requests = [ 40 -> [ 28@0 ]  41 -> [ 28@0 ]  42 -> [ 28@0 ]  43 -> [ 28@0 ]  ].
2 | network_0/router_level3_3/vc_allocator | Input grants = [ 28 -> 40  ], output grants = [ 40 -> 28  ].
2 | network_0/router_level3_3 | Assigning VC 0 at output 10 to VC 0 at input 7.
2 | network_0/router_level3_3 | Completed VC allocation for VC 0 at input 7 (front: 3).
2 | network_0/router_level3_3 |   Acquiring assigned VC 0 at output 10.
2 | network_0/router_level3_3/buf_7/vc_0 | Changing state from vc_alloc to active.
2 | network_0/router_level3_4 | Adding flit 4 to VC 0 at input 2 (state: idle, empty).
2 | network_0/router_level3_4 | Using precomputed lookahead routing information for VC 0 at input 2 (front: 4).
2 | network_0/router_level3_4/buf_2/vc_0 | Changing state from idle to vc_alloc.
2 | network_0/router_level3_4 | Beginning VC allocation for VC 0 at input 2 (front: 4).
2 | network_0/router_level3_4 |   Requesting VC 0 at output 8 (in_pri: 0, out_pri: 0).
2 | network_0/router_level3_4 |   Requesting VC 1 at output 8 (in_pri: 0, out_pri: 0).
2 | network_0/router_level3_4 |   Requesting VC 2 at output 8 (in_pri: 0, out_pri: 0).
2 | network_0/router_level3_4 |   Requesting VC 3 at output 8 (in_pri: 0, out_pri: 0).
2 | network_0/router_level3_4/vc_allocator | Input requests = [ 8 -> [ 32@0 33@0 34@0 35@0 ]  ], output requests = [ 32 -> [ 8@0 ]  33 -> [ 8@0 ]  34 -> [ 8@0 ]  35 -> [ 8@0 ]  ].
2 | network_0/router_level3_4/vc_allocator | Input grants = [ 8 -> 32  ], output grants = [ 32 -> 8  ].
2 | network_0/router_level3_4 | Assigning VC 0 at output 8 to VC 0 at input 2.
2 | network_0/router_level3_4 | Completed VC allocation for VC 0 at input 2 (front: 4).
2 | network_0/router_level3_4 |   Acquiring assigned VC 0 at output 8.
2 | network_0/router_level3_4/buf_2/vc_0 | Changing state from vc_alloc to active.
2 | network_0/router_level3_5 | Adding flit 5 to VC 0 at input 0 (state: idle, empty).
2 | network_0/router_level3_5 | Using precomputed lookahead routing information for VC 0 at input 0 (front: 5).
2 | network_0/router_level3_5/buf_0/vc_0 | Changing state from idle to vc_alloc.
2 | network_0/router_level3_5 | Adding flit 6 to VC 0 at input 7 (state: idle, empty).
2 | network_0/router_level3_5 | Using precomputed lookahead routing information for VC 0 at input 7 (front: 6).
2 | network_0/router_level3_5/buf_7/vc_0 | Changing state from idle to vc_alloc.
2 | network_0/router_level3_5 | Beginning VC allocation for VC 0 at input 0 (front: 5).
2 | network_0/router_level3_5 |   Requesting VC 0 at output 8 (in_pri: 0, out_pri: 0).
2 | network_0/router_level3_5 |   Requesting VC 1 at output 8 (in_pri: 0, out_pri: 0).
2 | network_0/router_level3_5 |   Requesting VC 2 at output 8 (in_pri: 0, out_pri: 0).
2 | network_0/router_level3_5 |   Requesting VC 3 at output 8 (in_pri: 0, out_pri: 0).
2 | network_0/router_level3_5 | Beginning VC allocation for VC 0 at input 7 (front: 6).
2 | network_0/router_level3_5 |   Requesting VC 0 at output 10 (in_pri: 0, out_pri: 0).
2 | network_0/router_level3_5 |   Requesting VC 1 at output 10 (in_pri: 0, out_pri: 0).
2 | network_0/router_level3_5 |   Requesting VC 2 at output 10 (in_pri: 0, out_pri: 0).
2 | network_0/router_level3_5 |   Requesting VC 3 at output 10 (in_pri: 0, out_pri: 0).
2 | network_0/router_level3_5/vc_allocator | Input requests = [ 0 -> [ 32@0 33@0 34@0 35@0 ]  28 -> [ 40@0 41@0 42@0 43@0 ]  ], output requests = [ 32 -> [ 0@0 ]  33 -> [ 0@0 ]  34 -> [ 0@0 ]  35 -> [ 0@0 ]  40 -> [ 28@0 ]  41 -> [ 28@0 ]  42 -> [ 28@0 ]  43 -> [ 28@0 ]  ].
2 | network_0/router_level3_5/vc_allocator | Input grants = [ 0 -> 32  28 -> 40  ], output grants = [ 32 -> 0  40 -> 28  ].
2 | network_0/router_level3_5 | Assigning VC 0 at output 8 to VC 0 at input 0.
2 | network_0/router_level3_5 | Assigning VC 0 at output 10 to VC 0 at input 7.
2 | network_0/router_level3_5 | Completed VC allocation for VC 0 at input 0 (front: 5).
2 | network_0/router_level3_5 |   Acquiring assigned VC 0 at output 8.
2 | network_0/router_level3_5/buf_0/vc_0 | Changing state from vc_alloc to active.
2 | network_0/router_level3_5 | Completed VC allocation for VC 0 at input 7 (front: 6).
2 | network_0/router_level3_5 |   Acquiring assigned VC 0 at output 10.
2 | network_0/router_level3_5/buf_7/vc_0 | Changing state from vc_alloc to active.
2 | network_0/router_level3_6 | Adding flit 7 to VC 0 at input 5 (state: idle, empty).
2 | network_0/router_level3_6 | Using precomputed lookahead routing information for VC 0 at input 5 (front: 7).
2 | network_0/router_level3_6/buf_5/vc_0 | Changing state from idle to vc_alloc.
2 | network_0/router_level3_6 | Adding flit 8 to VC 0 at input 6 (state: idle, empty).
2 | network_0/router_level3_6 | Using precomputed lookahead routing information for VC 0 at input 6 (front: 8).
2 | network_0/router_level3_6/buf_6/vc_0 | Changing state from idle to vc_alloc.
2 | network_0/router_level3_6 | Adding flit 9 to VC 0 at input 7 (state: idle, empty).
2 | network_0/router_level3_6 | Using precomputed lookahead routing information for VC 0 at input 7 (front: 9).
2 | network_0/router_level3_6/buf_7/vc_0 | Changing state from idle to vc_alloc.
2 | network_0/router_level3_6 | Beginning VC allocation for VC 0 at input 5 (front: 7).
2 | network_0/router_level3_6 |   Requesting VC 0 at output 15 (in_pri: 0, out_pri: 0).
2 | network_0/router_level3_6 |   Requesting VC 1 at output 15 (in_pri: 0, out_pri: 0).
2 | network_0/router_level3_6 |   Requesting VC 2 at output 15 (in_pri: 0, out_pri: 0).
2 | network_0/router_level3_6 |   Requesting VC 3 at output 15 (in_pri: 0, out_pri: 0).
2 | network_0/router_level3_6 | Beginning VC allocation for VC 0 at input 6 (front: 8).
2 | network_0/router_level3_6 |   Requesting VC 0 at output 15 (in_pri: 0, out_pri: 0).
2 | network_0/router_level3_6 |   Requesting VC 1 at output 15 (in_pri: 0, out_pri: 0).
2 | network_0/router_level3_6 |   Requesting VC 2 at output 15 (in_pri: 0, out_pri: 0).
2 | network_0/router_level3_6 |   Requesting VC 3 at output 15 (in_pri: 0, out_pri: 0).
2 | network_0/router_level3_6 | Beginning VC allocation for VC 0 at input 7 (front: 9).
2 | network_0/router_level3_6 |   Requesting VC 0 at output 10 (in_pri: 0, out_pri: 0).
2 | network_0/router_level3_6 |   Requesting VC 1 at output 10 (in_pri: 0, out_pri: 0).
2 | network_0/router_level3_6 |   Requesting VC 2 at output 10 (in_pri: 0, out_pri: 0).
2 | network_0/router_level3_6 |   Requesting VC 3 at output 10 (in_pri: 0, out_pri: 0).
2 | network_0/router_level3_6/vc_allocator | Input requests = [ 20 -> [ 60@0 61@0 62@0 63@0 ]  24 -> [ 60@0 61@0 62@0 63@0 ]  28 -> [ 40@0 41@0 42@0 43@0 ]  ], output requests = [ 40 -> [ 28@0 ]  41 -> [ 28@0 ]  42 -> [ 28@0 ]  43 -> [ 28@0 ]  60 -> [ 20@0 24@0 ]  61 -> [ 20@0 24@0 ]  62 -> [ 20@0 24@0 ]  63 -> [ 20@0 24@0 ]  ].
2 | network_0/router_level3_6/vc_allocator | Input grants = [ 20 -> 60  28 -> 40  ], output grants = [ 40 -> 28  60 -> 20  ].
2 | network_0/router_level3_6 | Assigning VC 0 at output 15 to VC 0 at input 5.
2 | network_0/router_level3_6 | VC allocation failed for VC 0 at input 6.
2 | network_0/router_level3_6 | Assigning VC 0 at output 10 to VC 0 at input 7.
2 | network_0/router_level3_6 | Completed VC allocation for VC 0 at input 5 (front: 7).
2 | network_0/router_level3_6 |   Acquiring assigned VC 0 at output 15.
2 | network_0/router_level3_6/buf_5/vc_0 | Changing state from vc_alloc to active.
2 | network_0/router_level3_6 | Completed VC allocation for VC 0 at input 6 (front: 8).
2 | network_0/router_level3_6 |   No output VC allocated.
2 | network_0/router_level3_6 | Completed VC allocation for VC 0 at input 7 (front: 9).
2 | network_0/router_level3_6 |   Acquiring assigned VC 0 at output 10.
2 | network_0/router_level3_6/buf_7/vc_0 | Changing state from vc_alloc to active.
2 | network_0/router_level3_7 | Adding flit 10 to VC 0 at input 2 (state: idle, empty).
2 | network_0/router_level3_7 | Using precomputed lookahead routing information for VC 0 at input 2 (front: 10).
2 | network_0/router_level3_7/buf_2/vc_0 | Changing state from idle to vc_alloc.
2 | network_0/router_level3_7 | Beginning VC allocation for VC 0 at input 2 (front: 10).
2 | network_0/router_level3_7 |   Requesting VC 0 at output 13 (in_pri: 0, out_pri: 0).
2 | network_0/router_level3_7 |   Requesting VC 1 at output 13 (in_pri: 0, out_pri: 0).
2 | network_0/router_level3_7 |   Requesting VC 2 at output 13 (in_pri: 0, out_pri: 0).
2 | network_0/router_level3_7 |   Requesting VC 3 at output 13 (in_pri: 0, out_pri: 0).
2 | network_0/router_level3_7/vc_allocator | Input requests = [ 8 -> [ 52@0 53@0 54@0 55@0 ]  24 -> [ 60@0 61@0 62@0 63@0 ]  ], output requests = [ 52 -> [ 8@0 ]  53 -> [ 8@0 ]  54 -> [ 8@0 ]  55 -> [ 8@0 ]  60 -> [ 24@0 ]  61 -> [ 24@0 ]  62 -> [ 24@0 ]  63 -> [ 24@0 ]  ].
2 | network_0/router_level3_7/vc_allocator | Input grants = [ 8 -> 52  24 -> 60  ], output grants = [ 52 -> 8  60 -> 24  ].
2 | network_0/router_level3_7 | Assigning VC 0 at output 13 to VC 0 at input 2.
2 | network_0/router_level3_7 | Completed VC allocation for VC 0 at input 2 (front: 10).
2 | network_0/router_level3_7 |   Acquiring assigned VC 0 at output 13.
2 | network_0/router_level3_7/buf_2/vc_0 | Changing state from vc_alloc to active.
3 | network_0/router_level3_1 | Beginning switch allocation for VC 0 at input 7 (front: 1).
3 | network_0/router_level3_1 |   Requesting output 11.0 (non-spec, pri: 0).
3 | network_0/router_level3_1/sw_allocator | Input requests = [ 5 -> [ 14@0 ]  7 -> [ 11@0 ]  ], output requests = [ 11 -> [ 7@0 ]  14 -> [ 5@0 ]  ].
3 | network_0/router_level3_1/sw_allocator | Input grants = [ 5 -> 14  7 -> 11  ], output grants = [ 11 -> 7  14 -> 5  ].
3 | network_0/router_level3_1 | Assigning output 11.0 to VC 0 at input 7.0.
3 | network_0/router_level3_1 | Completed switch allocation for VC 0 at input 7 (front: 1).
3 | network_0/router_level3_1 |   Scheduling switch connection from input 7.0 to output 11.0.
3 | network_0/router_level3_1 | Updating lookahead routing information for flit 1.
3 | network_0/router_level3_2 | Beginning switch allocation for VC 0 at input 2 (front: 2).
3 | network_0/router_level3_2 |   Requesting output 12.0 (non-spec, pri: 0).
3 | network_0/router_level3_2/sw_allocator | Input requests = [ 2 -> [ 12@0 ]  ], output requests = [ 12 -> [ 2@0 ]  ].
3 | network_0/router_level3_2/sw_allocator | Input grants = [ 2 -> 12  ], output grants = [ 12 -> 2  ].
3 | network_0/router_level3_2 | Assigning output 12.0 to VC 0 at input 2.0.
3 | network_0/router_level3_2 | Completed switch allocation for VC 0 at input 2 (front: 2).
3 | network_0/router_level3_2 |   Scheduling switch connection from input 2.0 to output 12.0.
3 | network_0/router_level3_2 | Updating lookahead routing information for flit 2.
3 | network_0/router_level3_3 | Beginning switch allocation for VC 0 at input 7 (front: 3).
3 | network_0/router_level3_3 |   Requesting output 10.0 (non-spec, pri: 0).
3 | network_0/router_level3_3/sw_allocator | Input requests = [ 7 -> [ 10@0 ]  ], output requests = [ 10 -> [ 7@0 ]  ].
3 | network_0/router_level3_3/sw_allocator | Input grants = [ 7 -> 10  ], output grants = [ 10 -> 7  ].
3 | network_0/router_level3_3 | Assigning output 10.0 to VC 0 at input 7.0.
3 | network_0/router_level3_3 | Completed switch allocation for VC 0 at input 7 (front: 3).
3 | network_0/router_level3_3 |   Scheduling switch connection from input 7.0 to output 10.0.
3 | network_0/router_level3_3 | Updating lookahead routing information for flit 3.
3 | network_0/router_level3_4 | Beginning switch allocation for VC 0 at input 2 (front: 4).
3 | network_0/router_level3_4 |   Requesting output 8.0 (non-spec, pri: 0).
3 | network_0/router_level3_4/sw_allocator | Input requests = [ 2 -> [ 8@0 ]  ], output requests = [ 8 -> [ 2@0 ]  ].
3 | network_0/router_level3_4/sw_allocator | Input grants = [ 2 -> 8  ], output grants = [ 8 -> 2  ].
3 | network_0/router_level3_4 | Assigning output 8.0 to VC 0 at input 2.0.
3 | network_0/router_level3_4 | Completed switch allocation for VC 0 at input 2 (front: 4).
3 | network_0/router_level3_4 |   Scheduling switch connection from input 2.0 to output 8.0.
3 | network_0/router_level3_4 | Updating lookahead routing information for flit 4.
3 | network_0/router_level3_5 | Beginning switch allocation for VC 0 at input 0 (front: 5).
3 | network_0/router_level3_5 |   Requesting output 8.0 (non-spec, pri: 0).
3 | network_0/router_level3_5 | Beginning switch allocation for VC 0 at input 7 (front: 6).
3 | network_0/router_level3_5 |   Requesting output 10.0 (non-spec, pri: 0).
3 | network_0/router_level3_5/sw_allocator | Input requests = [ 0 -> [ 8@0 ]  7 -> [ 10@0 ]  ], output requests = [ 8 -> [ 0@0 ]  10 -> [ 7@0 ]  ].
3 | network_0/router_level3_5/sw_allocator | Input grants = [ 0 -> 8  7 -> 10  ], output grants = [ 8 -> 0  10 -> 7  ].
3 | network_0/router_level3_5 | Assigning output 8.0 to VC 0 at input 0.0.
3 | network_0/router_level3_5 | Assigning output 10.0 to VC 0 at input 7.0.
3 | network_0/router_level3_5 | Completed switch allocation for VC 0 at input 0 (front: 5).
3 | network_0/router_level3_5 |   Scheduling switch connection from input 0.0 to output 8.0.
3 | network_0/router_level3_5 | Updating lookahead routing information for flit 5.
3 | network_0/router_level3_5 | Completed switch allocation for VC 0 at input 7 (front: 6).
3 | network_0/router_level3_5 |   Scheduling switch connection from input 7.0 to output 10.0.
3 | network_0/router_level3_5 | Updating lookahead routing information for flit 6.
3 | network_0/router_level3_6 | Beginning VC allocation for VC 0 at input 6 (front: 8).
3 | network_0/router_level3_6 |   VC 0 at output 15 is in use by VC 0 at input 5 (front flit: 7).
3 | network_0/router_level3_6 |   Requesting VC 1 at output 15 (in_pri: 0, out_pri: 0).
3 | network_0/router_level3_6 |   Requesting VC 2 at output 15 (in_pri: 0, out_pri: 0).
3 | network_0/router_level3_6 |   Requesting VC 3 at output 15 (in_pri: 0, out_pri: 0).
3 | network_0/router_level3_6/vc_allocator | Input requests = [ 16 -> [ 56@0 57@0 58@0 59@0 ]  21 -> [ 52@0 53@0 54@0 55@0 ]  24 -> [ 61@0 62@0 63@0 ]  ], output requests = [ 52 -> [ 21@0 ]  53 -> [ 21@0 ]  54 -> [ 21@0 ]  55 -> [ 21@0 ]  56 -> [ 16@0 ]  57 -> [ 16@0 ]  58 -> [ 16@0 ]  59 -> [ 16@0 ]  61 -> [ 24@0 ]  62 -> [ 24@0 ]  63 -> [ 24@0 ]  ].
3 | network_0/router_level3_6/vc_allocator | Input grants = [ 16 -> 56  21 -> 52  24 -> 61  ], output grants = [ 52 -> 21  56 -> 16  61 -> 24  ].
3 | network_0/router_level3_6 | Assigning VC 1 at output 15 to VC 0 at input 6.
3 | network_0/router_level3_6 | Beginning switch allocation for VC 0 at input 5 (front: 7).
3 | network_0/router_level3_6 |   Requesting output 15.0 (non-spec, pri: 0).
3 | network_0/router_level3_6 | Beginning switch allocation for VC 0 at input 7 (front: 9).
3 | network_0/router_level3_6 |   Requesting output 10.0 (non-spec, pri: 0).
3 | network_0/router_level3_6/sw_allocator | Input requests = [ 5 -> [ 15@0 ]  7 -> [ 10@0 ]  ], output requests = [ 10 -> [ 7@0 ]  15 -> [ 5@0 ]  ].
3 | network_0/router_level3_6/sw_allocator | Input grants = [ 5 -> 15  7 -> 10  ], output grants = [ 10 -> 7  15 -> 5  ].
3 | network_0/router_level3_6 | Assigning output 15.0 to VC 0 at input 5.0.
3 | network_0/router_level3_6 | Assigning output 10.0 to VC 0 at input 7.0.
3 | network_0/router_level3_6 | Completed VC allocation for VC 0 at input 6 (front: 8).
3 | network_0/router_level3_6 |   Acquiring assigned VC 1 at output 15.
3 | network_0/router_level3_6/buf_6/vc_0 | Changing state from vc_alloc to active.
3 | network_0/router_level3_6 | Completed switch allocation for VC 0 at input 5 (front: 7).
3 | network_0/router_level3_6 |   Scheduling switch connection from input 5.0 to output 15.0.
3 | network_0/router_level3_6 | Updating lookahead routing information for flit 7.
3 | network_0/router_level3_6 | Completed switch allocation for VC 0 at input 7 (front: 9).
3 | network_0/router_level3_6 |   Scheduling switch connection from input 7.0 to output 10.0.
3 | network_0/router_level3_6 | Updating lookahead routing information for flit 9.
3 | network_0/router_level3_7 | Beginning switch allocation for VC 0 at input 2 (front: 10).
3 | network_0/router_level3_7 |   Requesting output 13.0 (non-spec, pri: 0).
3 | network_0/router_level3_7/sw_allocator | Input requests = [ 2 -> [ 13@0 ]  6 -> [ 15@0 ]  ], output requests = [ 13 -> [ 2@0 ]  15 -> [ 6@0 ]  ].
3 | network_0/router_level3_7/sw_allocator | Input grants = [ 2 -> 13  6 -> 15  ], output grants = [ 13 -> 2  15 -> 6  ].
3 | network_0/router_level3_7 | Assigning output 13.0 to VC 0 at input 2.0.
3 | network_0/router_level3_7 | Completed switch allocation for VC 0 at input 2 (front: 10).
3 | network_0/router_level3_7 |   Scheduling switch connection from input 2.0 to output 13.0.
3 | network_0/router_level3_7 | Updating lookahead routing information for flit 10.
4 | network_0/router_level3_1 | Beginning crossbar traversal for flit 1 from input 7.0 to output 11.0.
4 | network_0/router_level3_1 | Completed crossbar traversal for flit 1 from input 7.0 to output 11.0.
4 | network_0/router_level3_1 | Buffering flit 1 at output 11.
4 | network_0/router_level3_2 | Beginning crossbar traversal for flit 2 from input 2.0 to output 12.0.
4 | network_0/router_level3_2 | Completed crossbar traversal for flit 2 from input 2.0 to output 12.0.
4 | network_0/router_level3_2 | Buffering flit 2 at output 12.
4 | network_0/router_level3_3 | Beginning crossbar traversal for flit 3 from input 7.0 to output 10.0.
4 | network_0/router_level3_3 | Completed crossbar traversal for flit 3 from input 7.0 to output 10.0.
4 | network_0/router_level3_3 | Buffering flit 3 at output 10.
4 | network_0/router_level3_4 | Beginning crossbar traversal for flit 4 from input 2.0 to output 8.0.
4 | network_0/router_level3_4 | Completed crossbar traversal for flit 4 from input 2.0 to output 8.0.
4 | network_0/router_level3_4 | Buffering flit 4 at output 8.
4 | network_0/router_level3_5 | Beginning crossbar traversal for flit 5 from input 0.0 to output 8.0.
4 | network_0/router_level3_5 | Beginning crossbar traversal for flit 6 from input 7.0 to output 10.0.
4 | network_0/router_level3_5 | Completed crossbar traversal for flit 5 from input 0.0 to output 8.0.
4 | network_0/router_level3_5 | Buffering flit 5 at output 8.
4 | network_0/router_level3_5 | Completed crossbar traversal for flit 6 from input 7.0 to output 10.0.
4 | network_0/router_level3_5 | Buffering flit 6 at output 10.
4 | network_0/router_level3_6 | Beginning switch allocation for VC 0 at input 6 (front: 8).
4 | network_0/router_level3_6 |   Requesting output 15.0 (non-spec, pri: 0).
4 | network_0/router_level3_6/sw_allocator | Input requests = [ 4 -> [ 14@0 ]  5 -> [ 13@0 ]  6 -> [ 15@0 ]  ], output requests = [ 13 -> [ 5@0 ]  14 -> [ 4@0 ]  15 -> [ 6@0 ]  ].
4 | network_0/router_level3_6/sw_allocator | Input grants = [ 4 -> 14  5 -> 13  6 -> 15  ], output grants = [ 13 -> 5  14 -> 4  15 -> 6  ].
4 | network_0/router_level3_6 | Assigning output 15.0 to VC 0 at input 6.0.
4 | network_0/router_level3_6 | Beginning crossbar traversal for flit 7 from input 5.0 to output 15.0.
4 | network_0/router_level3_6 | Beginning crossbar traversal for flit 9 from input 7.0 to output 10.0.
4 | network_0/router_level3_6 | Completed switch allocation for VC 0 at input 6 (front: 8).
4 | network_0/router_level3_6 |   Scheduling switch connection from input 6.0 to output 15.0.
4 | network_0/router_level3_6 | Updating lookahead routing information for flit 8.
4 | network_0/router_level3_6 | Completed crossbar traversal for flit 7 from input 5.0 to output 15.0.
4 | network_0/router_level3_6 | Buffering flit 7 at output 15.
4 | network_0/router_level3_6 | Completed crossbar traversal for flit 9 from input 7.0 to output 10.0.
4 | network_0/router_level3_6 | Buffering flit 9 at output 10.
4 | network_0/router_level3_7 | Beginning crossbar traversal for flit 10 from input 2.0 to output 13.0.
4 | network_0/router_level3_7 | Completed crossbar traversal for flit 10 from input 2.0 to output 13.0.
4 | network_0/router_level3_7 | Buffering flit 10 at output 13.
4 | network_0/router_level3_1 | Sending flit 1 to channel at output 11.
4 | network_0/router_level3_2 | Sending flit 2 to channel at output 12.
4 | network_0/router_level3_3 | Sending flit 3 to channel at output 10.
4 | network_0/router_level3_4 | Sending flit 4 to channel at output 8.
4 | network_0/router_level3_5 | Sending flit 5 to channel at output 8.
4 | network_0/router_level3_5 | Sending flit 6 to channel at output 10.
4 | network_0/router_level3_6 | Sending flit 9 to channel at output 10.
4 | network_0/router_level3_6 | Sending flit 7 to channel at output 15.
4 | network_0/router_level3_7 | Sending flit 10 to channel at output 13.
5 | network_0/network_0_fchan_20491 | Beginning channel traversal for flit 1 with delay 1.
5 | network_0/network_0_fchan_20500 | Beginning channel traversal for flit 2 with delay 1.
5 | network_0/network_0_fchan_20506 | Beginning channel traversal for flit 3 with delay 1.
5 | network_0/network_0_fchan_20512 | Beginning channel traversal for flit 4 with delay 1.
5 | network_0/network_0_fchan_20520 | Beginning channel traversal for flit 5 with delay 1.
5 | network_0/network_0_fchan_20522 | Beginning channel traversal for flit 6 with delay 1.
5 | network_0/network_0_fchan_20530 | Beginning channel traversal for flit 9 with delay 1.
5 | network_0/network_0_fchan_20535 | Beginning channel traversal for flit 7 with delay 1.
5 | network_0/network_0_fchan_20541 | Beginning channel traversal for flit 10 with delay 1.
5 | network_0/router_level3_6 | Beginning crossbar traversal for flit 8 from input 6.0 to output 15.0.
5 | network_0/router_level3_6 | Completed crossbar traversal for flit 8 from input 6.0 to output 15.0.
5 | network_0/router_level3_6 | Buffering flit 8 at output 15.
5 | network_0/network_0_fchan_20491 | Completed channel traversal for flit 1.
5 | network_0/network_0_fchan_20500 | Completed channel traversal for flit 2.
5 | network_0/network_0_fchan_20506 | Completed channel traversal for flit 3.
5 | network_0/network_0_fchan_20512 | Completed channel traversal for flit 4.
5 | network_0/network_0_fchan_20520 | Completed channel traversal for flit 5.
5 | network_0/network_0_fchan_20522 | Completed channel traversal for flit 6.
5 | network_0/network_0_fchan_20530 | Completed channel traversal for flit 9.
5 | network_0/network_0_fchan_20535 | Completed channel traversal for flit 7.
5 | network_0/network_0_fchan_20541 | Completed channel traversal for flit 10.
5 | network_0/router_level3_6 | Sending flit 8 to channel at output 15.
6 | network_0/network_0_fchan_20535 | Beginning channel traversal for flit 8 with delay 1.
6 | network_0/router_level2_0 | Received flit 4 from channel at input 4.
6 | network_0/router_level2_0 | Received flit 5 from channel at input 5.
6 | network_0/router_level2_2 | Received flit 3 from channel at input 3.
6 | network_0/router_level2_2 | Received flit 6 from channel at input 5.
6 | network_0/router_level2_2 | Received flit 9 from channel at input 6.
6 | network_0/router_level2_3 | Received flit 1 from channel at input 1.
6 | network_0/router_level2_4 | Received flit 2 from channel at input 2.
6 | network_0/router_level2_5 | Received flit 10 from channel at input 7.
6 | network_0/router_level2_7 | Received flit 7 from channel at input 6.
6 | network_0/router_level2_0 | Adding flit 4 to VC 0 at input 4 (state: idle, empty).
6 | network_0/router_level2_0 | Using precomputed lookahead routing information for VC 0 at input 4 (front: 4).
6 | network_0/router_level2_0/buf_4/vc_0 | Changing state from idle to vc_alloc.
6 | network_0/router_level2_0 | Adding flit 5 to VC 0 at input 5 (state: idle, empty).
6 | network_0/router_level2_0 | Using precomputed lookahead routing information for VC 0 at input 5 (front: 5).
6 | network_0/router_level2_0/buf_5/vc_0 | Changing state from idle to vc_alloc.
6 | network_0/router_level2_0 | Beginning VC allocation for VC 0 at input 4 (front: 4).
6 | network_0/router_level2_0 |   Requesting VC 0 at output 12 (in_pri: 0, out_pri: 0).
6 | network_0/router_level2_0 |   Requesting VC 1 at output 12 (in_pri: 0, out_pri: 0).
6 | network_0/router_level2_0 |   Requesting VC 2 at output 12 (in_pri: 0, out_pri: 0).
6 | network_0/router_level2_0 |   Requesting VC 3 at output 12 (in_pri: 0, out_pri: 0).
6 | network_0/router_level2_0 | Beginning VC allocation for VC 0 at input 5 (front: 5).
6 | network_0/router_level2_0 |   Requesting VC 0 at output 11 (in_pri: 0, out_pri: 0).
6 | network_0/router_level2_0 |   Requesting VC 1 at output 11 (in_pri: 0, out_pri: 0).
6 | network_0/router_level2_0 |   Requesting VC 2 at output 11 (in_pri: 0, out_pri: 0).
6 | network_0/router_level2_0 |   Requesting VC 3 at output 11 (in_pri: 0, out_pri: 0).
6 | network_0/router_level2_0/vc_allocator | Input requests = [ 16 -> [ 48@0 49@0 50@0 51@0 ]  20 -> [ 44@0 45@0 46@0 47@0 ]  ], output requests = [ 44 -> [ 20@0 ]  45 -> [ 20@0 ]  46 -> [ 20@0 ]  47 -> [ 20@0 ]  48 -> [ 16@0 ]  49 -> [ 16@0 ]  50 -> [ 16@0 ]  51 -> [ 16@0 ]  ].
6 | network_0/router_level2_0/vc_allocator | Input grants = [ 16 -> 48  20 -> 44  ], output grants = [ 44 -> 20  48 -> 16  ].
6 | network_0/router_level2_0 | Assigning VC 0 at output 12 to VC 0 at input 4.
6 | network_0/router_level2_0 | Assigning VC 0 at output 11 to VC 0 at input 5.
6 | network_0/router_level2_0 | Completed VC allocation for VC 0 at input 4 (front: 4).
6 | network_0/router_level2_0 |   Acquiring assigned VC 0 at output 12.
6 | network_0/router_level2_0/buf_4/vc_0 | Changing state from vc_alloc to active.
6 | network_0/router_level2_0 | Completed VC allocation for VC 0 at input 5 (front: 5).
6 | network_0/router_level2_0 |   Acquiring assigned VC 0 at output 11.
6 | network_0/router_level2_0/buf_5/vc_0 | Changing state from vc_alloc to active.
6 | network_0/router_level2_2 | Adding flit 3 to VC 0 at input 3 (state: idle, empty).
6 | network_0/router_level2_2 | Using precomputed lookahead routing information for VC 0 at input 3 (front: 3).
6 | network_0/router_level2_2/buf_3/vc_0 | Changing state from idle to vc_alloc.
6 | network_0/router_level2_2 | Adding flit 6 to VC 0 at input 5 (state: idle, empty).
6 | network_0/router_level2_2 | Using precomputed lookahead routing information for VC 0 at input 5 (front: 6).
6 | network_0/router_level2_2/buf_5/vc_0 | Changing state from idle to vc_alloc.
6 | network_0/router_level2_2 | Adding flit 9 to VC 0 at input 6 (state: idle, empty).
6 | network_0/router_level2_2 | Using precomputed lookahead routing information for VC 0 at input 6 (front: 9).
6 | network_0/router_level2_2/buf_6/vc_0 | Changing state from idle to vc_alloc.
6 | network_0/router_level2_2 | Beginning VC allocation for VC 0 at input 3 (front: 3).
6 | network_0/router_level2_2 |   Requesting VC 0 at output 8 (in_pri: 0, out_pri: 0).
6 | network_0/router_level2_2 |   Requesting VC 1 at output 8 (in_pri: 0, out_pri: 0).
6 | network_0/router_level2_2 |   Requesting VC 2 at output 8 (in_pri: 0, out_pri: 0).
6 | network_0/router_level2_2 |   Requesting VC 3 at output 8 (in_pri: 0, out_pri: 0).
6 | network_0/router_level2_2 | Beginning VC allocation for VC 0 at input 5 (front: 6).
6 | network_0/router_level2_2 |   Requesting VC 0 at output 9 (in_pri: 0, out_pri: 0).
6 | network_0/router_level2_2 |   Requesting VC 1 at output 9 (in_pri: 0, out_pri: 0).
6 | network_0/router_level2_2 |   Requesting VC 2 at output 9 (in_pri: 0, out_pri: 0).
6 | network_0/router_level2_2 |   Requesting VC 3 at output 9 (in_pri: 0, out_pri: 0).
6 | network_0/router_level2_2 | Beginning VC allocation for VC 0 at input 6 (front: 9).
6 | network_0/router_level2_2 |   Requesting VC 0 at output 12 (in_pri: 0, out_pri: 0).
6 | network_0/router_level2_2 |   Requesting VC 1 at output 12 (in_pri: 0, out_pri: 0).
6 | network_0/router_level2_2 |   Requesting VC 2 at output 12 (in_pri: 0, out_pri: 0).
6 | network_0/router_level2_2 |   Requesting VC 3 at output 12 (in_pri: 0, out_pri: 0).
6 | network_0/router_level2_2/vc_allocator | Input requests = [ 12 -> [ 32@0 33@0 34@0 35@0 ]  20 -> [ 36@0 37@0 38@0 39@0 ]  24 -> [ 48@0 49@0 50@0 51@0 ]  ], output requests = [ 32 -> [ 12@0 ]  33 -> [ 12@0 ]  34 -> [ 12@0 ]  35 -> [ 12@0 ]  36 -> [ 20@0 ]  37 -> [ 20@0 ]  38 -> [ 20@0 ]  39 -> [ 20@0 ]  48 -> [ 24@0 ]  49 -> [ 24@0 ]  50 -> [ 24@0 ]  51 -> [ 24@0 ]  ].
6 | network_0/router_level2_2/vc_allocator | Input grants = [ 12 -> 32  20 -> 36  24 -> 48  ], output grants = [ 32 -> 12  36 -> 20  48 -> 24  ].
6 | network_0/router_level2_2 | Assigning VC 0 at output 8 to VC 0 at input 3.
6 | network_0/router_level2_2 | Assigning VC 0 at output 9 to VC 0 at input 5.
6 | network_0/router_level2_2 | Assigning VC 0 at output 12 to VC 0 at input 6.
6 | network_0/router_level2_2 | Completed VC allocation for VC 0 at input 3 (front: 3).
6 | network_0/router_level2_2 |   Acquiring assigned VC 0 at output 8.
6 | network_0/router_level2_2/buf_3/vc_0 | Changing state from vc_alloc to active.
6 | network_0/router_level2_2 | Completed VC allocation for VC 0 at input 5 (front: 6).
6 | network_0/router_level2_2 |   Acquiring assigned VC 0 at output 9.
6 | network_0/router_level2_2/buf_5/vc_0 | Changing state from vc_alloc to active.
6 | network_0/router_level2_2 | Completed VC allocation for VC 0 at input 6 (front: 9).
6 | network_0/router_level2_2 |   Acquiring assigned VC 0 at output 12.
6 | network_0/router_level2_2/buf_6/vc_0 | Changing state from vc_alloc to active.
6 | network_0/router_level2_3 | Adding flit 1 to VC 0 at input 1 (state: idle, empty).
6 | network_0/router_level2_3 | Using precomputed lookahead routing information for VC 0 at input 1 (front: 1).
6 | network_0/router_level2_3/buf_1/vc_0 | Changing state from idle to vc_alloc.
6 | network_0/router_level2_3 | Beginning VC allocation for VC 0 at input 1 (front: 1).
6 | network_0/router_level2_3 |   Requesting VC 0 at output 9 (in_pri: 0, out_pri: 0).
6 | network_0/router_level2_3 |   Requesting VC 1 at output 9 (in_pri: 0, out_pri: 0).
6 | network_0/router_level2_3 |   Requesting VC 2 at output 9 (in_pri: 0, out_pri: 0).
6 | network_0/router_level2_3 |   Requesting VC 3 at output 9 (in_pri: 0, out_pri: 0).
6 | network_0/router_level2_3/vc_allocator | Input requests = [ 4 -> [ 36@0 37@0 38@0 39@0 ]  ], output requests = [ 36 -> [ 4@0 ]  37 -> [ 4@0 ]  38 -> [ 4@0 ]  39 -> [ 4@0 ]  ].
6 | network_0/router_level2_3/vc_allocator | Input grants = [ 4 -> 36  ], output grants = [ 36 -> 4  ].
6 | network_0/router_level2_3 | Assigning VC 0 at output 9 to VC 0 at input 1.
6 | network_0/router_level2_3 | Completed VC allocation for VC 0 at input 1 (front: 1).
6 | network_0/router_level2_3 |   Acquiring assigned VC 0 at output 9.
6 | network_0/router_level2_3/buf_1/vc_0 | Changing state from vc_alloc to active.
6 | network_0/router_level2_4 | Adding flit 2 to VC 0 at input 2 (state: idle, empty).
6 | network_0/router_level2_4 | Using precomputed lookahead routing information for VC 0 at input 2 (front: 2).
6 | network_0/router_level2_4/buf_2/vc_0 | Changing state from idle to vc_alloc.
6 | network_0/router_level2_4 | Beginning VC allocation for VC 0 at input 2 (front: 2).
6 | network_0/router_level2_4 |   Requesting VC 0 at output 11 (in_pri: 0, out_pri: 0).
6 | network_0/router_level2_4 |   Requesting VC 1 at output 11 (in_pri: 0, out_pri: 0).
6 | network_0/router_level2_4 |   Requesting VC 2 at output 11 (in_pri: 0, out_pri: 0).
6 | network_0/router_level2_4 |   Requesting VC 3 at output 11 (in_pri: 0, out_pri: 0).
6 | network_0/router_level2_4/vc_allocator | Input requests = [ 8 -> [ 44@0 45@0 46@0 47@0 ]  ], output requests = [ 44 -> [ 8@0 ]  45 -> [ 8@0 ]  46 -> [ 8@0 ]  47 -> [ 8@0 ]  ].
6 | network_0/router_level2_4/vc_allocator | Input grants = [ 8 -> 44  ], output grants = [ 44 -> 8  ].
6 | network_0/router_level2_4 | Assigning VC 0 at output 11 to VC 0 at input 2.
6 | network_0/router_level2_4 | Completed VC allocation for VC 0 at input 2 (front: 2).
6 | network_0/router_level2_4 |   Acquiring assigned VC 0 at output 11.
6 | network_0/router_level2_4/buf_2/vc_0 | Changing state from vc_alloc to active.
6 | network_0/router_level2_5 | Adding flit 10 to VC 0 at input 7 (state: idle, empty).
6 | network_0/router_level2_5 | Using precomputed lookahead routing information for VC 0 at input 7 (front: 10).
6 | network_0/router_level2_5/buf_7/vc_0 | Changing state from idle to vc_alloc.
6 | network_0/router_level2_5 | Beginning VC allocation for VC 0 at input 7 (front: 10).
6 | network_0/router_level2_5 |   Requesting VC 0 at output 8 (in_pri: 0, out_pri: 0).
6 | network_0/router_level2_5 |   Requesting VC 1 at output 8 (in_pri: 0, out_pri: 0).
6 | network_0/router_level2_5 |   Requesting VC 2 at output 8 (in_pri: 0, out_pri: 0).
6 | network_0/router_level2_5 |   Requesting VC 3 at output 8 (in_pri: 0, out_pri: 0).
6 | network_0/router_level2_5/vc_allocator | Input requests = [ 28 -> [ 32@0 33@0 34@0 35@0 ]  ], output requests = [ 32 -> [ 28@0 ]  33 -> [ 28@0 ]  34 -> [ 28@0 ]  35 -> [ 28@0 ]  ].
6 | network_0/router_level2_5/vc_allocator | Input grants = [ 28 -> 32  ], output grants = [ 32 -> 28  ].
6 | network_0/router_level2_5 | Assigning VC 0 at output 8 to VC 0 at input 7.
6 | network_0/router_level2_5 | Completed VC allocation for VC 0 at input 7 (front: 10).
6 | network_0/router_level2_5 |   Acquiring assigned VC 0 at output 8.
6 | network_0/router_level2_5/buf_7/vc_0 | Changing state from vc_alloc to active.
6 | network_0/router_level2_7 | Adding flit 7 to VC 0 at input 6 (state: idle, empty).
6 | network_0/router_level2_7 | Using precomputed lookahead routing information for VC 0 at input 6 (front: 7).
6 | network_0/router_level2_7/buf_6/vc_0 | Changing state from idle to vc_alloc.
6 | network_0/router_level2_7 | Beginning VC allocation for VC 0 at input 6 (front: 7).
6 | network_0/router_level2_7 |   Requesting VC 0 at output 15 (in_pri: 0, out_pri: 0).
6 | network_0/router_level2_7 |   Requesting VC 1 at output 15 (in_pri: 0, out_pri: 0).
6 | network_0/router_level2_7 |   Requesting VC 2 at output 15 (in_pri: 0, out_pri: 0).
6 | network_0/router_level2_7 |   Requesting VC 3 at output 15 (in_pri: 0, out_pri: 0).
6 | network_0/router_level2_7/vc_allocator | Input requests = [ 24 -> [ 60@0 61@0 62@0 63@0 ]  28 -> [ 52@0 53@0 54@0 55@0 ]  ], output requests = [ 52 -> [ 28@0 ]  53 -> [ 28@0 ]  54 -> [ 28@0 ]  55 -> [ 28@0 ]  60 -> [ 24@0 ]  61 -> [ 24@0 ]  62 -> [ 24@0 ]  63 -> [ 24@0 ]  ].
6 | network_0/router_level2_7/vc_allocator | Input grants = [ 24 -> 60  28 -> 52  ], output grants = [ 52 -> 28  60 -> 24  ].
6 | network_0/router_level2_7 | Assigning VC 0 at output 15 to VC 0 at input 6.
6 | network_0/router_level2_7 | Completed VC allocation for VC 0 at input 6 (front: 7).
6 | network_0/router_level2_7 |   Acquiring assigned VC 0 at output 15.
6 | network_0/router_level2_7/buf_6/vc_0 | Changing state from vc_alloc to active.
6 | network_0/network_0_fchan_20535 | Completed channel traversal for flit 8.
7 | network_0/router_level2_7 | Received flit 8 from channel at input 6.
7 | network_0/router_level2_0 | Beginning switch allocation for VC 0 at input 4 (front: 4).
7 | network_0/router_level2_0 |   Requesting output 12.0 (non-spec, pri: 0).
7 | network_0/router_level2_0 | Beginning switch allocation for VC 0 at input 5 (front: 5).
7 | network_0/router_level2_0 |   Requesting output 11.0 (non-spec, pri: 0).
7 | network_0/router_level2_0/sw_allocator | Input requests = [ 4 -> [ 12@0 ]  5 -> [ 11@0 ]  ], output requests = [ 11 -> [ 5@0 ]  12 -> [ 4@0 ]  ].
7 | network_0/router_level2_0/sw_allocator | Input grants = [ 4 -> 12  5 -> 11  ], output grants = [ 11 -> 5  12 -> 4  ].
7 | network_0/router_level2_0 | Assigning output 12.0 to VC 0 at input 4.0.
7 | network_0/router_level2_0 | Assigning output 11.0 to VC 0 at input 5.0.
7 | network_0/router_level2_0 | Completed switch allocation for VC 0 at input 4 (front: 4).
7 | network_0/router_level2_0 |   Scheduling switch connection from input 4.0 to output 12.0.
7 | network_0/router_level2_0 | Updating lookahead routing information for flit 4.
7 | network_0/router_level2_0 | Completed switch allocation for VC 0 at input 5 (front: 5).
7 | network_0/router_level2_0 |   Scheduling switch connection from input 5.0 to output 11.0.
7 | network_0/router_level2_0 | Updating lookahead routing information for flit 5.
7 | network_0/router_level2_2 | Beginning switch allocation for VC 0 at input 3 (front: 3).
7 | network_0/router_level2_2 |   Requesting output 8.0 (non-spec, pri: 0).
7 | network_0/router_level2_2 | Beginning switch allocation for VC 0 at input 5 (front: 6).
7 | network_0/router_level2_2 |   Requesting output 9.0 (non-spec, pri: 0).
7 | network_0/router_level2_2 | Beginning switch allocation for VC 0 at input 6 (front: 9).
7 | network_0/router_level2_2 |   Requesting output 12.0 (non-spec, pri: 0).
7 | network_0/router_level2_2/sw_allocator | Input requests = [ 3 -> [ 8@0 ]  5 -> [ 9@0 ]  6 -> [ 12@0 ]  ], output requests = [ 8 -> [ 3@0 ]  9 -> [ 5@0 ]  12 -> [ 6@0 ]  ].
7 | network_0/router_level2_2/sw_allocator | Input grants = [ 3 -> 8  5 -> 9  6 -> 12  ], output grants = [ 8 -> 3  9 -> 5  12 -> 6  ].
7 | network_0/router_level2_2 | Assigning output 8.0 to VC 0 at input 3.0.
7 | network_0/router_level2_2 | Assigning output 9.0 to VC 0 at input 5.0.
7 | network_0/router_level2_2 | Assigning output 12.0 to VC 0 at input 6.0.
7 | network_0/router_level2_2 | Completed switch allocation for VC 0 at input 3 (front: 3).
7 | network_0/router_level2_2 |   Scheduling switch connection from input 3.0 to output 8.0.
7 | network_0/router_level2_2 | Updating lookahead routing information for flit 3.
7 | network_0/router_level2_2 | Completed switch allocation for VC 0 at input 5 (front: 6).
7 | network_0/router_level2_2 |   Scheduling switch connection from input 5.0 to output 9.0.
7 | network_0/router_level2_2 | Updating lookahead routing information for flit 6.
7 | network_0/router_level2_2 | Completed switch allocation for VC 0 at input 6 (front: 9).
7 | network_0/router_level2_2 |   Scheduling switch connection from input 6.0 to output 12.0.
7 | network_0/router_level2_2 | Updating lookahead routing information for flit 9.
7 | network_0/router_level2_3 | Beginning switch allocation for VC 0 at input 1 (front: 1).
7 | network_0/router_level2_3 |   Requesting output 9.0 (non-spec, pri: 0).
7 | network_0/router_level2_3/sw_allocator | Input requests = [ 1 -> [ 9@0 ]  ], output requests = [ 9 -> [ 1@0 ]  ].
7 | network_0/router_level2_3/sw_allocator | Input grants = [ 1 -> 9  ], output grants = [ 9 -> 1  ].
7 | network_0/router_level2_3 | Assigning output 9.0 to VC 0 at input 1.0.
7 | network_0/router_level2_3 | Completed switch allocation for VC 0 at input 1 (front: 1).
7 | network_0/router_level2_3 |   Scheduling switch connection from input 1.0 to output 9.0.
7 | network_0/router_level2_3 | Updating lookahead routing information for flit 1.
7 | network_0/router_level2_4 | Beginning switch allocation for VC 0 at input 2 (front: 2).
7 | network_0/router_level2_4 |   Requesting output 11.0 (non-spec, pri: 0).
7 | network_0/router_level2_4/sw_allocator | Input requests = [ 2 -> [ 11@0 ]  ], output requests = [ 11 -> [ 2@0 ]  ].
7 | network_0/router_level2_4/sw_allocator | Input grants = [ 2 -> 11  ], output grants = [ 11 -> 2  ].
7 | network_0/router_level2_4 | Assigning output 11.0 to VC 0 at input 2.0.
7 | network_0/router_level2_4 | Completed switch allocation for VC 0 at input 2 (front: 2).
7 | network_0/router_level2_4 |   Scheduling switch connection from input 2.0 to output 11.0.
7 | network_0/router_level2_4 | Updating lookahead routing information for flit 2.
7 | network_0/router_level2_5 | Beginning switch allocation for VC 0 at input 7 (front: 10).
7 | network_0/router_level2_5 |   Requesting output 8.0 (non-spec, pri: 0).
7 | network_0/router_level2_5/sw_allocator | Input requests = [ 7 -> [ 8@0 ]  ], output requests = [ 8 -> [ 7@0 ]  ].
7 | network_0/router_level2_5/sw_allocator | Input grants = [ 7 -> 8  ], output grants = [ 8 -> 7  ].
7 | network_0/router_level2_5 | Assigning output 8.0 to VC 0 at input 7.0.
7 | network_0/router_level2_5 | Completed switch allocation for VC 0 at input 7 (front: 10).
7 | network_0/router_level2_5 |   Scheduling switch connection from input 7.0 to output 8.0.
7 | network_0/router_level2_5 | Updating lookahead routing information for flit 10.
7 | network_0/router_level2_7 | Adding flit 8 to VC 1 at input 6 (state: idle, empty).
7 | network_0/router_level2_7 | Using precomputed lookahead routing information for VC 1 at input 6 (front: 8).
7 | network_0/router_level2_7/buf_6/vc_1 | Changing state from idle to vc_alloc.
7 | network_0/router_level2_7 | Beginning VC allocation for VC 1 at input 6 (front: 8).
7 | network_0/router_level2_7 |   VC 0 at output 13 is in use by VC 0 at input 7 (front flit: 11).
7 | network_0/router_level2_7 |   Requesting VC 1 at output 13 (in_pri: 0, out_pri: 0).
7 | network_0/router_level2_7 |   Requesting VC 2 at output 13 (in_pri: 0, out_pri: 0).
7 | network_0/router_level2_7 |   Requesting VC 3 at output 13 (in_pri: 0, out_pri: 0).
7 | network_0/router_level2_7/vc_allocator | Input requests = [ 0 -> [ 61@0 62@0 63@0 ]  20 -> [ 44@0 45@0 46@0 47@0 ]  25 -> [ 53@0 54@0 55@0 ]  ], output requests = [ 44 -> [ 20@0 ]  45 -> [ 20@0 ]  46 -> [ 20@0 ]  47 -> [ 20@0 ]  53 -> [ 25@0 ]  54 -> [ 25@0 ]  55 -> [ 25@0 ]  61 -> [ 0@0 ]  62 -> [ 0@0 ]  63 -> [ 0@0 ]  ].
7 | network_0/router_level2_7/vc_allocator | Input grants = [ 0 -> 61  20 -> 44  25 -> 53  ], output grants = [ 44 -> 20  53 -> 25  61 -> 0  ].
7 | network_0/router_level2_7 | Assigning VC 1 at output 13 to VC 1 at input 6.
7 | network_0/router_level2_7 | Beginning switch allocation for VC 0 at input 6 (front: 7).
7 | network_0/router_level2_7 |   Requesting output 15.0 (non-spec, pri: 0).
7 | network_0/router_level2_7/sw_allocator | Input requests = [ 6 -> [ 15@0 ]  7 -> [ 13@0 ]  ], output requests = [ 13 -> [ 7@0 ]  15 -> [ 6@0 ]  ].
7 | network_0/router_level2_7/sw_allocator | Input grants = [ 6 -> 15  7 -> 13  ], output grants = [ 13 -> 7  15 -> 6  ].
7 | network_0/router_level2_7 | Assigning output 15.0 to VC 0 at input 6.0.
7 | network_0/router_level2_7 | Completed VC allocation for VC 1 at input 6 (front: 8).
7 | network_0/router_level2_7 |   Acquiring assigned VC 1 at output 13.
7 | network_0/router_level2_7/buf_6/vc_1 | Changing state from vc_alloc to active.
7 | network_0/router_level2_7 | Completed switch allocation for VC 0 at input 6 (front: 7).
7 | network_0/router_level2_7 |   Scheduling switch connection from input 6.0 to output 15.0.
7 | network_0/router_level2_7 | Updating lookahead routing information for flit 7.
8 | network_0/router_level2_0 | Beginning crossbar traversal for flit 4 from input 4.0 to output 12.0.
8 | network_0/router_level2_0 | Beginning crossbar traversal for flit 5 from input 5.0 to output 11.0.
8 | network_0/router_level2_0 | Completed crossbar traversal for flit 4 from input 4.0 to output 12.0.
8 | network_0/router_level2_0 | Buffering flit 4 at output 12.
8 | network_0/router_level2_0 | Completed crossbar traversal for flit 5 from input 5.0 to output 11.0.
8 | network_0/router_level2_0 | Buffering flit 5 at output 11.
8 | network_0/router_level2_2 | Beginning crossbar traversal for flit 3 from input 3.0 to output 8.0.
8 | network_0/router_level2_2 | Beginning crossbar traversal for flit 6 from input 5.0 to output 9.0.
8 | network_0/router_level2_2 | Beginning crossbar traversal for flit 9 from input 6.0 to output 12.0.
8 | network_0/router_level2_2 | Completed crossbar traversal for flit 3 from input 3.0 to output 8.0.
8 | network_0/router_level2_2 | Buffering flit 3 at output 8.
8 | network_0/router_level2_2 | Completed crossbar traversal for flit 6 from input 5.0 to output 9.0.
8 | network_0/router_level2_2 | Buffering flit 6 at output 9.
8 | network_0/router_level2_2 | Completed crossbar traversal for flit 9 from input 6.0 to output 12.0.
8 | network_0/router_level2_2 | Buffering flit 9 at output 12.
8 | network_0/router_level2_3 | Beginning crossbar traversal for flit 1 from input 1.0 to output 9.0.
8 | network_0/router_level2_3 | Completed crossbar traversal for flit 1 from input 1.0 to output 9.0.
8 | network_0/router_level2_3 | Buffering flit 1 at output 9.
8 | network_0/router_level2_4 | Beginning crossbar traversal for flit 2 from input 2.0 to output 11.0.
8 | network_0/router_level2_4 | Completed crossbar traversal for flit 2 from input 2.0 to output 11.0.
8 | network_0/router_level2_4 | Buffering flit 2 at output 11.
8 | network_0/router_level2_5 | Beginning crossbar traversal for flit 10 from input 7.0 to output 8.0.
8 | network_0/router_level2_5 | Completed crossbar traversal for flit 10 from input 7.0 to output 8.0.
8 | network_0/router_level2_5 | Buffering flit 10 at output 8.
8 | network_0/router_level2_7 | Beginning switch allocation for VC 1 at input 6 (front: 8).
8 | network_0/router_level2_7 |   Requesting output 13.0 (non-spec, pri: 0).
8 | network_0/router_level2_7/sw_allocator | Input requests = [ 0 -> [ 15@0 ]  5 -> [ 11@0 ]  6 -> [ 13@0 ]  ], output requests = [ 11 -> [ 5@0 ]  13 -> [ 6@0 ]  15 -> [ 0@0 ]  ].
8 | network_0/router_level2_7/sw_allocator | Input grants = [ 0 -> 15  5 -> 11  6 -> 13  ], output grants = [ 11 -> 5  13 -> 6  15 -> 0  ].
8 | network_0/router_level2_7 | Assigning output 13.0 to VC 1 at input 6.0.
8 | network_0/router_level2_7 | Beginning crossbar traversal for flit 7 from input 6.0 to output 15.0.
8 | network_0/router_level2_7 | Completed switch allocation for VC 1 at input 6 (front: 8).
8 | network_0/router_level2_7 |   Scheduling switch connection from input 6.0 to output 13.0.
8 | network_0/router_level2_7 | Updating lookahead routing information for flit 8.
8 | network_0/router_level2_7 | Completed crossbar traversal for flit 7 from input 6.0 to output 15.0.
8 | network_0/router_level2_7 | Buffering flit 7 at output 15.
8 | network_0/router_level2_0 | Sending flit 5 to channel at output 11.
8 | network_0/router_level2_0 | Sending flit 4 to channel at output 12.
8 | network_0/router_level2_2 | Sending flit 3 to channel at output 8.
8 | network_0/router_level2_2 | Sending flit 6 to channel at output 9.
8 | network_0/router_level2_2 | Sending flit 9 to channel at output 12.
8 | network_0/router_level2_3 | Sending flit 1 to channel at output 9.
8 | network_0/router_level2_4 | Sending flit 2 to channel at output 11.
8 | network_0/router_level2_5 | Sending flit 10 to channel at output 8.
8 | network_0/router_level2_7 | Sending flit 7 to channel at output 15.
9 | network_0/network_0_fchan_12291 | Beginning channel traversal for flit 5 with delay 1.
9 | network_0/network_0_fchan_12292 | Beginning channel traversal for flit 4 with delay 1.
9 | network_0/network_0_fchan_12304 | Beginning channel traversal for flit 3 with delay 1.
9 | network_0/network_0_fchan_12305 | Beginning channel traversal for flit 6 with delay 1.
9 | network_0/network_0_fchan_12308 | Beginning channel traversal for flit 9 with delay 1.
9 | network_0/network_0_fchan_12313 | Beginning channel traversal for flit 1 with delay 1.
9 | network_0/network_0_fchan_12323 | Beginning channel traversal for flit 2 with delay 1.
9 | network_0/network_0_fchan_12328 | Beginning channel traversal for flit 10 with delay 1.
9 | network_0/network_0_fchan_12351 | Beginning channel traversal for flit 7 with delay 1.
9 | network_0/router_level2_7 | Beginning crossbar traversal for flit 8 from input 6.0 to output 13.0.
9 | network_0/router_level2_7 | Completed crossbar traversal for flit 8 from input 6.0 to output 13.0.
9 | network_0/router_level2_7 | Buffering flit 8 at output 13.
9 | network_0/network_0_fchan_12291 | Completed channel traversal for flit 5.
9 | network_0/network_0_fchan_12292 | Completed channel traversal for flit 4.
9 | network_0/network_0_fchan_12304 | Completed channel traversal for flit 3.
9 | network_0/network_0_fchan_12305 | Completed channel traversal for flit 6.
9 | network_0/network_0_fchan_12308 | Completed channel traversal for flit 9.
9 | network_0/network_0_fchan_12313 | Completed channel traversal for flit 1.
9 | network_0/network_0_fchan_12323 | Completed channel traversal for flit 2.
9 | network_0/network_0_fchan_12328 | Completed channel traversal for flit 10.
9 | network_0/network_0_fchan_12351 | Completed channel traversal for flit 7.
9 | network_0/router_level2_7 | Sending flit 8 to channel at output 13.
10 | network_0/network_0_fchan_12349 | Beginning channel traversal for flit 8 with delay 1.
10 | network_0/router_level1_2 | Received flit 3 from channel at input 0.
10 | network_0/router_level1_5 | Received flit 10 from channel at input 0.
10 | network_0/router_level1_10 | Received flit 6 from channel at input 0.
10 | network_0/router_level1_11 | Received flit 1 from channel at input 0.
10 | network_0/router_level1_24 | Received flit 5 from channel at input 0.
10 | network_0/router_level1_28 | Received flit 2 from channel at input 0.
10 | network_0/router_level1_32 | Received flit 4 from channel at input 0.
10 | network_0/router_level1_34 | Received flit 9 from channel at input 0.
10 | network_0/router_level1_63 | Received flit 7 from channel at input 0.
10 | network_0/router_level1_2 | Adding flit 3 to VC 0 at input 0 (state: idle, empty).
10 | network_0/router_level1_2 | Using precomputed lookahead routing information for VC 0 at input 0 (front: 3).
10 | network_0/router_level1_2/buf_0/vc_0 | Changing state from idle to vc_alloc.
10 | network_0/router_level1_2 | Beginning VC allocation for VC 0 at input 0 (front: 3).
10 | network_0/router_level1_2 |   Requesting VC 0 at output 9 (in_pri: 0, out_pri: 0).
10 | network_0/router_level1_2 |   Requesting VC 1 at output 9 (in_pri: 0, out_pri: 0).
10 | network_0/router_level1_2 |   Requesting VC 2 at output 9 (in_pri: 0, out_pri: 0).
10 | network_0/router_level1_2 |   Requesting VC 3 at output 9 (in_pri: 0, out_pri: 0).
10 | network_0/router_level1_2/vc_allocator | Input requests = [ 0 -> [ 36@0 37@0 38@0 39@0 ]  ], output requests = [ 36 -> [ 0@0 ]  37 -> [ 0@0 ]  38 -> [ 0@0 ]  39 -> [ 0@0 ]  ].
10 | network_0/router_level1_2/vc_allocator | Input grants = [ 0 -> 36  ], output grants = [ 36 -> 0  ].
10 | network_0/router_level1_2 | Assigning VC 0 at output 9 to VC 0 at input 0.
10 | network_0/router_level1_2 | Completed VC allocation for VC 0 at input 0 (front: 3).
10 | network_0/router_level1_2 |   Acquiring assigned VC 0 at output 9.
10 | network_0/router_level1_2/buf_0/vc_0 | Changing state from vc_alloc to active.
10 | network_0/router_level1_5 | Adding flit 10 to VC 0 at input 0 (state: idle, empty).
10 | network_0/router_level1_5 | Using precomputed lookahead routing information for VC 0 at input 0 (front: 10).
10 | network_0/router_level1_5/buf_0/vc_0 | Changing state from idle to vc_alloc.
10 | network_0/router_level1_5 | Beginning VC allocation for VC 0 at input 0 (front: 10).
10 | network_0/router_level1_5 |   Requesting VC 0 at output 8 (in_pri: 0, out_pri: 0).
10 | network_0/router_level1_5 |   Requesting VC 1 at output 8 (in_pri: 0, out_pri: 0).
10 | network_0/router_level1_5 |   Requesting VC 2 at output 8 (in_pri: 0, out_pri: 0).
10 | network_0/router_level1_5 |   Requesting VC 3 at output 8 (in_pri: 0, out_pri: 0).
10 | network_0/router_level1_5/vc_allocator | Input requests = [ 0 -> [ 32@0 33@0 34@0 35@0 ]  8 -> [ 32@0 33@0 34@0 35@0 ]  12 -> [ 32@0 33@0 34@0 35@0 ]  16 -> [ 32@0 33@0 34@0 35@0 ]  24 -> [ 36@0 37@0 38@0 39@0 ]  ], output requests = [ 32 -> [ 0@0 8@0 12@0 16@0 ]  33 -> [ 0@0 8@0 12@0 16@0 ]  34 -> [ 0@0 8@0 12@0 16@0 ]  35 -> [ 0@0 8@0 12@0 16@0 ]  36 -> [ 24@0 ]  37 -> [ 24@0 ]  38 -> [ 24@0 ]  39 -> [ 24@0 ]  ].
10 | network_0/router_level1_5/vc_allocator | Input grants = [ 0 -> 32  24 -> 36  ], output grants = [ 32 -> 0  36 -> 24  ].
10 | network_0/router_level1_5 | Assigning VC 0 at output 8 to VC 0 at input 0.
10 | network_0/router_level1_5 | Completed VC allocation for VC 0 at input 0 (front: 10).
10 | network_0/router_level1_5 |   Acquiring assigned VC 0 at output 8.
10 | network_0/router_level1_5/buf_0/vc_0 | Changing state from vc_alloc to active.
10 | network_0/router_level1_10 | Adding flit 6 to VC 0 at input 0 (state: idle, empty).
10 | network_0/router_level1_10 | Using precomputed lookahead routing information for VC 0 at input 0 (front: 6).
10 | network_0/router_level1_10/buf_0/vc_0 | Changing state from idle to vc_alloc.
10 | network_0/router_level1_10 | Beginning VC allocation for VC 0 at input 0 (front: 6).
10 | network_0/router_level1_10 |   Requesting VC 0 at output 9 (in_pri: 0, out_pri: 0).
10 | network_0/router_level1_10 |   Requesting VC 1 at output 9 (in_pri: 0, out_pri: 0).
10 | network_0/router_level1_10 |   Requesting VC 2 at output 9 (in_pri: 0, out_pri: 0).
10 | network_0/router_level1_10 |   Requesting VC 3 at output 9 (in_pri: 0, out_pri: 0).
10 | network_0/router_level1_10/vc_allocator | Input requests = [ 0 -> [ 36@0 37@0 38@0 39@0 ]  20 -> [ 32@0 33@0 34@0 35@0 ]  ], output requests = [ 32 -> [ 20@0 ]  33 -> [ 20@0 ]  34 -> [ 20@0 ]  35 -> [ 20@0 ]  36 -> [ 0@0 ]  37 -> [ 0@0 ]  38 -> [ 0@0 ]  39 -> [ 0@0 ]  ].
10 | network_0/router_level1_10/vc_allocator | Input grants = [ 0 -> 36  20 -> 32  ], output grants = [ 32 -> 20  36 -> 0  ].
10 | network_0/router_level1_10 | Assigning VC 0 at output 9 to VC 0 at input 0.
10 | network_0/router_level1_10 | Completed VC allocation for VC 0 at input 0 (front: 6).
10 | network_0/router_level1_10 |   Acquiring assigned VC 0 at output 9.
10 | network_0/router_level1_10/buf_0/vc_0 | Changing state from vc_alloc to active.
10 | network_0/router_level1_11 | Adding flit 1 to VC 0 at input 0 (state: idle, empty).
10 | network_0/router_level1_11 | Using precomputed lookahead routing information for VC 0 at input 0 (front: 1).
10 | network_0/router_level1_11/buf_0/vc_0 | Changing state from idle to vc_alloc.
10 | network_0/router_level1_11 | Beginning VC allocation for VC 0 at input 0 (front: 1).
10 | network_0/router_level1_11 |   Requesting VC 0 at output 8 (in_pri: 0, out_pri: 0).
10 | network_0/router_level1_11 |   Requesting VC 1 at output 8 (in_pri: 0, out_pri: 0).
10 | network_0/router_level1_11 |   Requesting VC 2 at output 8 (in_pri: 0, out_pri: 0).
10 | network_0/router_level1_11 |   Requesting VC 3 at output 8 (in_pri: 0, out_pri: 0).
10 | network_0/router_level1_11/vc_allocator | Input requests = [ 0 -> [ 32@0 33@0 34@0 35@0 ]  ], output requests = [ 32 -> [ 0@0 ]  33 -> [ 0@0 ]  34 -> [ 0@0 ]  35 -> [ 0@0 ]  ].
10 | network_0/router_level1_11/vc_allocator | Input grants = [ 0 -> 32  ], output grants = [ 32 -> 0  ].
10 | network_0/router_level1_11 | Assigning VC 0 at output 8 to VC 0 at input 0.
10 | network_0/router_level1_11 | Completed VC allocation for VC 0 at input 0 (front: 1).
10 | network_0/router_level1_11 |   Acquiring assigned VC 0 at output 8.
10 | network_0/router_level1_11/buf_0/vc_0 | Changing state from vc_alloc to active.
10 | network_0/router_level1_24 | Adding flit 5 to VC 0 at input 0 (state: idle, empty).
10 | network_0/router_level1_24 | Using precomputed lookahead routing information for VC 0 at input 0 (front: 5).
10 | network_0/router_level1_24/buf_0/vc_0 | Changing state from idle to vc_alloc.
10 | network_0/router_level1_24 | Beginning VC allocation for VC 0 at input 0 (front: 5).
10 | network_0/router_level1_24 |   Requesting VC 0 at output 8 (in_pri: 0, out_pri: 0).
10 | network_0/router_level1_24 |   Requesting VC 1 at output 8 (in_pri: 0, out_pri: 0).
10 | network_0/router_level1_24 |   Requesting VC 2 at output 8 (in_pri: 0, out_pri: 0).
10 | network_0/router_level1_24 |   Requesting VC 3 at output 8 (in_pri: 0, out_pri: 0).
10 | network_0/router_level1_24/vc_allocator | Input requests = [ 0 -> [ 32@0 33@0 34@0 35@0 ]  4 -> [ 36@0 37@0 38@0 39@0 ]  ], output requests = [ 32 -> [ 0@0 ]  33 -> [ 0@0 ]  34 -> [ 0@0 ]  35 -> [ 0@0 ]  36 -> [ 4@0 ]  37 -> [ 4@0 ]  38 -> [ 4@0 ]  39 -> [ 4@0 ]  ].
10 | network_0/router_level1_24/vc_allocator | Input grants = [ 0 -> 32  4 -> 36  ], output grants = [ 32 -> 0  36 -> 4  ].
10 | network_0/router_level1_24 | Assigning VC 0 at output 8 to VC 0 at input 0.
10 | network_0/router_level1_24 | Completed VC allocation for VC 0 at input 0 (front: 5).
10 | network_0/router_level1_24 |   Acquiring assigned VC 0 at output 8.
10 | network_0/router_level1_24/buf_0/vc_0 | Changing state from vc_alloc to active.
10 | network_0/router_level1_28 | Adding flit 2 to VC 0 at input 0 (state: idle, empty).
10 | network_0/router_level1_28 | Using precomputed lookahead routing information for VC 0 at input 0 (front: 2).
10 | network_0/router_level1_28/buf_0/vc_0 | Changing state from idle to vc_alloc.
10 | network_0/router_level1_28 | Beginning VC allocation for VC 0 at input 0 (front: 2).
10 | network_0/router_level1_28 |   Requesting VC 0 at output 9 (in_pri: 0, out_pri: 0).
10 | network_0/router_level1_28 |   Requesting VC 1 at output 9 (in_pri: 0, out_pri: 0).
10 | network_0/router_level1_28 |   Requesting VC 2 at output 9 (in_pri: 0, out_pri: 0).
10 | network_0/router_level1_28 |   Requesting VC 3 at output 9 (in_pri: 0, out_pri: 0).
10 | network_0/router_level1_28/vc_allocator | Input requests = [ 0 -> [ 36@0 37@0 38@0 39@0 ]  28 -> [ 36@0 37@0 38@0 39@0 ]  ], output requests = [ 36 -> [ 0@0 28@0 ]  37 -> [ 0@0 28@0 ]  38 -> [ 0@0 28@0 ]  39 -> [ 0@0 28@0 ]  ].
10 | network_0/router_level1_28/vc_allocator | Input grants = [ 0 -> 36  ], output grants = [ 36 -> 0  ].
10 | network_0/router_level1_28 | Assigning VC 0 at output 9 to VC 0 at input 0.
10 | network_0/router_level1_28 | Completed VC allocation for VC 0 at input 0 (front: 2).
10 | network_0/router_level1_28 |   Acquiring assigned VC 0 at output 9.
10 | network_0/router_level1_28/buf_0/vc_0 | Changing state from vc_alloc to active.
10 | network_0/router_level1_32 | Adding flit 4 to VC 0 at input 0 (state: idle, empty).
10 | network_0/router_level1_32 | Using precomputed lookahead routing information for VC 0 at input 0 (front: 4).
10 | network_0/router_level1_32/buf_0/vc_0 | Changing state from idle to vc_alloc.
10 | network_0/router_level1_32 | Beginning VC allocation for VC 0 at input 0 (front: 4).
10 | network_0/router_level1_32 |   Requesting VC 0 at output 9 (in_pri: 0, out_pri: 0).
10 | network_0/router_level1_32 |   Requesting VC 1 at output 9 (in_pri: 0, out_pri: 0).
10 | network_0/router_level1_32 |   Requesting VC 2 at output 9 (in_pri: 0, out_pri: 0).
10 | network_0/router_level1_32 |   Requesting VC 3 at output 9 (in_pri: 0, out_pri: 0).
10 | network_0/router_level1_32/vc_allocator | Input requests = [ 0 -> [ 36@0 37@0 38@0 39@0 ]  16 -> [ 32@0 33@0 34@0 35@0 ]  ], output requests = [ 32 -> [ 16@0 ]  33 -> [ 16@0 ]  34 -> [ 16@0 ]  35 -> [ 16@0 ]  36 -> [ 0@0 ]  37 -> [ 0@0 ]  38 -> [ 0@0 ]  39 -> [ 0@0 ]  ].
10 | network_0/router_level1_32/vc_allocator | Input grants = [ 0 -> 36  16 -> 32  ], output grants = [ 32 -> 16  36 -> 0  ].
10 | network_0/router_level1_32 | Assigning VC 0 at output 9 to VC 0 at input 0.
10 | network_0/router_level1_32 | Completed VC allocation for VC 0 at input 0 (front: 4).
10 | network_0/router_level1_32 |   Acquiring assigned VC 0 at output 9.
10 | network_0/router_level1_32/buf_0/vc_0 | Changing state from vc_alloc to active.
10 | network_0/router_level1_34 | Adding flit 9 to VC 0 at input 0 (state: idle, empty).
10 | network_0/router_level1_34 | Using precomputed lookahead routing information for VC 0 at input 0 (front: 9).
10 | network_0/router_level1_34/buf_0/vc_0 | Changing state from idle to vc_alloc.
10 | network_0/router_level1_34 | Beginning VC allocation for VC 0 at input 0 (front: 9).
10 | network_0/router_level1_34 |   Requesting VC 0 at output 7 (in_pri: 0, out_pri: 0).
10 | network_0/router_level1_34 |   Requesting VC 1 at output 7 (in_pri: 0, out_pri: 0).
10 | network_0/router_level1_34 |   Requesting VC 2 at output 7 (in_pri: 0, out_pri: 0).
10 | network_0/router_level1_34 |   Requesting VC 3 at output 7 (in_pri: 0, out_pri: 0).
10 | network_0/router_level1_34/vc_allocator | Input requests = [ 0 -> [ 28@0 29@0 30@0 31@0 ]  8 -> [ 32@0 33@0 34@0 35@0 ]  ], output requests = [ 28 -> [ 0@0 ]  29 -> [ 0@0 ]  30 -> [ 0@0 ]  31 -> [ 0@0 ]  32 -> [ 8@0 ]  33 -> [ 8@0 ]  34 -> [ 8@0 ]  35 -> [ 8@0 ]  ].
10 | network_0/router_level1_34/vc_allocator | Input grants = [ 0 -> 28  8 -> 32  ], output grants = [ 28 -> 0  32 -> 8  ].
10 | network_0/router_level1_34 | Assigning VC 0 at output 7 to VC 0 at input 0.
10 | network_0/router_level1_34 | Completed VC allocation for VC 0 at input 0 (front: 9).
10 | network_0/router_level1_34 |   Acquiring assigned VC 0 at output 7.
10 | network_0/router_level1_34/buf_0/vc_0 | Changing state from vc_alloc to active.
10 | network_0/router_level1_63 | Adding flit 7 to VC 0 at input 0 (state: idle, empty).
10 | network_0/router_level1_63 | Using precomputed lookahead routing information for VC 0 at input 0 (front: 7).
10 | network_0/router_level1_63/buf_0/vc_0 | Changing state from idle to vc_alloc.
10 | network_0/router_level1_63 | Beginning VC allocation for VC 0 at input 0 (front: 7).
10 | network_0/router_level1_63 |   Requesting VC 0 at output 8 (in_pri: 0, out_pri: 0).
10 | network_0/router_level1_63 |   Requesting VC 1 at output 8 (in_pri: 0, out_pri: 0).
10 | network_0/router_level1_63 |   Requesting VC 2 at output 8 (in_pri: 0, out_pri: 0).
10 | network_0/router_level1_63 |   Requesting VC 3 at output 8 (in_pri: 0, out_pri: 0).
10 | network_0/router_level1_63/vc_allocator | Input requests = [ 0 -> [ 32@0 33@0 34@0 35@0 ]  4 -> [ 36@0 37@0 38@0 39@0 ]  28 -> [ 36@0 37@0 38@0 39@0 ]  ], output requests = [ 32 -> [ 0@0 ]  33 -> [ 0@0 ]  34 -> [ 0@0 ]  35 -> [ 0@0 ]  36 -> [ 4@0 28@0 ]  37 -> [ 4@0 28@0 ]  38 -> [ 4@0 28@0 ]  39 -> [ 4@0 28@0 ]  ].
10 | network_0/router_level1_63/vc_allocator | Input grants = [ 0 -> 32  4 -> 36  ], output grants = [ 32 -> 0  36 -> 4  ].
10 | network_0/router_level1_63 | Assigning VC 0 at output 8 to VC 0 at input 0.
10 | network_0/router_level1_63 | Completed VC allocation for VC 0 at input 0 (front: 7).
10 | network_0/router_level1_63 |   Acquiring assigned VC 0 at output 8.
10 | network_0/router_level1_63/buf_0/vc_0 | Changing state from vc_alloc to active.
10 | network_0/network_0_fchan_12349 | Completed channel traversal for flit 8.
11 | network_0/router_level1_47 | Received flit 8 from channel at input 0.
11 | network_0/router_level1_2 | Beginning switch allocation for VC 0 at input 0 (front: 3).
11 | network_0/router_level1_2 |   Requesting output 9.0 (non-spec, pri: 0).
11 | network_0/router_level1_2/sw_allocator | Input requests = [ 0 -> [ 9@0 ]  ], output requests = [ 9 -> [ 0@0 ]  ].
11 | network_0/router_level1_2/sw_allocator | Input grants = [ 0 -> 9  ], output grants = [ 9 -> 0  ].
11 | network_0/router_level1_2 | Assigning output 9.0 to VC 0 at input 0.0.
11 | network_0/router_level1_2 | Completed switch allocation for VC 0 at input 0 (front: 3).
11 | network_0/router_level1_2 |   Scheduling switch connection from input 0.0 to output 9.0.
11 | network_0/router_level1_2 | Updating lookahead routing information for flit 3.
11 | network_0/router_level1_5 | Beginning switch allocation for VC 0 at input 0 (front: 10).
11 | network_0/router_level1_5 |   Requesting output 8.0 (non-spec, pri: 0).
11 | network_0/router_level1_5/sw_allocator | Input requests = [ 0 -> [ 8@0 ]  6 -> [ 9@0 ]  ], output requests = [ 8 -> [ 0@0 ]  9 -> [ 6@0 ]  ].
11 | network_0/router_level1_5/sw_allocator | Input grants = [ 0 -> 8  6 -> 9  ], output grants = [ 8 -> 0  9 -> 6  ].
11 | network_0/router_level1_5 | Assigning output 8.0 to VC 0 at input 0.0.
11 | network_0/router_level1_5 | Completed switch allocation for VC 0 at input 0 (front: 10).
11 | network_0/router_level1_5 |   Scheduling switch connection from input 0.0 to output 8.0.
11 | network_0/router_level1_5 | Updating lookahead routing information for flit 10.
11 | network_0/router_level1_10 | Beginning switch allocation for VC 0 at input 0 (front: 6).
11 | network_0/router_level1_10 |   Requesting output 9.0 (non-spec, pri: 0).
11 | network_0/router_level1_10/sw_allocator | Input requests = [ 0 -> [ 9@0 ]  5 -> [ 8@0 ]  ], output requests = [ 8 -> [ 5@0 ]  9 -> [ 0@0 ]  ].
11 | network_0/router_level1_10/sw_allocator | Input grants = [ 0 -> 9  5 -> 8  ], output grants = [ 8 -> 5  9 -> 0  ].
11 | network_0/router_level1_10 | Assigning output 9.0 to VC 0 at input 0.0.
11 | network_0/router_level1_10 | Completed switch allocation for VC 0 at input 0 (front: 6).
11 | network_0/router_level1_10 |   Scheduling switch connection from input 0.0 to output 9.0.
11 | network_0/router_level1_10 | Updating lookahead routing information for flit 6.
11 | network_0/router_level1_11 | Beginning switch allocation for VC 0 at input 0 (front: 1).
11 | network_0/router_level1_11 |   Requesting output 8.0 (non-spec, pri: 0).
11 | network_0/router_level1_11/sw_allocator | Input requests = [ 0 -> [ 8@0 ]  ], output requests = [ 8 -> [ 0@0 ]  ].
11 | network_0/router_level1_11/sw_allocator | Input grants = [ 0 -> 8  ], output grants = [ 8 -> 0  ].
11 | network_0/router_level1_11 | Assigning output 8.0 to VC 0 at input 0.0.
11 | network_0/router_level1_11 | Completed switch allocation for VC 0 at input 0 (front: 1).
11 | network_0/router_level1_11 |   Scheduling switch connection from input 0.0 to output 8.0.
11 | network_0/router_level1_11 | Updating lookahead routing information for flit 1.
11 | network_0/router_level1_24 | Beginning switch allocation for VC 0 at input 0 (front: 5).
11 | network_0/router_level1_24 |   Requesting output 8.0 (non-spec, pri: 0).
11 | network_0/router_level1_24/sw_allocator | Input requests = [ 0 -> [ 8@0 ]  1 -> [ 9@0 ]  ], output requests = [ 8 -> [ 0@0 ]  9 -> [ 1@0 ]  ].
11 | network_0/router_level1_24/sw_allocator | Input grants = [ 0 -> 8  1 -> 9  ], output grants = [ 8 -> 0  9 -> 1  ].
11 | network_0/router_level1_24 | Assigning output 8.0 to VC 0 at input 0.0.
11 | network_0/router_level1_24 | Completed switch allocation for VC 0 at input 0 (front: 5).
11 | network_0/router_level1_24 |   Scheduling switch connection from input 0.0 to output 8.0.
11 | network_0/router_level1_24 | Updating lookahead routing information for flit 5.
11 | network_0/router_level1_28 | Beginning switch allocation for VC 0 at input 0 (front: 2).
11 | network_0/router_level1_28 |   Requesting output 9.0 (non-spec, pri: 0).
11 | network_0/router_level1_28/sw_allocator | Input requests = [ 0 -> [ 9@0 ]  ], output requests = [ 9 -> [ 0@0 ]  ].
11 | network_0/router_level1_28/sw_allocator | Input grants = [ 0 -> 9  ], output grants = [ 9 -> 0  ].
11 | network_0/router_level1_28 | Assigning output 9.0 to VC 0 at input 0.0.
11 | network_0/router_level1_28 | Completed switch allocation for VC 0 at input 0 (front: 2).
11 | network_0/router_level1_28 |   Scheduling switch connection from input 0.0 to output 9.0.
11 | network_0/router_level1_28 | Updating lookahead routing information for flit 2.
11 | network_0/router_level1_32 | Beginning switch allocation for VC 0 at input 0 (front: 4).
11 | network_0/router_level1_32 |   Requesting output 9.0 (non-spec, pri: 0).
11 | network_0/router_level1_32/sw_allocator | Input requests = [ 0 -> [ 9@0 ]  4 -> [ 8@0 ]  ], output requests = [ 8 -> [ 4@0 ]  9 -> [ 0@0 ]  ].
11 | network_0/router_level1_32/sw_allocator | Input grants = [ 0 -> 9  4 -> 8  ], output grants = [ 8 -> 4  9 -> 0  ].
11 | network_0/router_level1_32 | Assigning output 9.0 to VC 0 at input 0.0.
11 | network_0/router_level1_32 | Completed switch allocation for VC 0 at input 0 (front: 4).
11 | network_0/router_level1_32 |   Scheduling switch connection from input 0.0 to output 9.0.
11 | network_0/router_level1_32 | Updating lookahead routing information for flit 4.
11 | network_0/router_level1_34 | Beginning switch allocation for VC 0 at input 0 (front: 9).
11 | network_0/router_level1_34 |   Requesting output 7.0 (non-spec, pri: 0).
11 | network_0/router_level1_34/sw_allocator | Input requests = [ 0 -> [ 7@0 ]  2 -> [ 8@0 ]  ], output requests = [ 7 -> [ 0@0 ]  8 -> [ 2@0 ]  ].
11 | network_0/router_level1_34/sw_allocator | Input grants = [ 0 -> 7  2 -> 8  ], output grants = [ 7 -> 0  8 -> 2  ].
11 | network_0/router_level1_34 | Assigning output 7.0 to VC 0 at input 0.0.
11 | network_0/router_level1_34 | Completed switch allocation for VC 0 at input 0 (front: 9).
11 | network_0/router_level1_34 |   Scheduling switch connection from input 0.0 to output 7.0.
[...]
27 | network_0/router_level3_129 | Beginning switch allocation for VC 0 at input 13 (front: 10).
27 | network_0/router_level3_129 |   Requesting output 6.0 (non-spec, pri: 0).
27 | network_0/router_level3_129/sw_allocator | Input requests = [ 1 -> [ 12@0 ]  4 -> [ 11@0 ]  5 -> [ 13@0 ]  9 -> [ 7@0 ]  11 -> [ 2@0 ]  13 -> [ 6@0 ]  ], output requests = [ 2 -> [ 11@0 ]  6 -> [ 13@0 ]  7 -> [ 9@0 ]  11 -> [ 4@0 ]  12 -> [ 1@0 ]  13 -> [ 5@0 ]  ].
27 | network_0/router_level3_129/sw_allocator | Input grants = [ 1 -> 12  4 -> 11  5 -> 13  9 -> 7  11 -> 2  13 -> 6  ], output grants = [ 2 -> 11  6 -> 13  7 -> 9  11 -> 4  12 -> 1  13 -> 5  ].
27 | network_0/router_level3_129 | Assigning output 6.0 to VC 0 at input 13.0.
27 | network_0/router_level3_129 | Completed switch allocation for VC 0 at input 13 (front: 10).
27 | network_0/router_level3_129 |   Scheduling switch connection from input 13.0 to output 6.0.
27 | network_0/router_level3_151 | Beginning switch allocation for VC 0 at input 10 (front: 3).
27 | network_0/router_level3_151 |   Requesting output 1.0 (non-spec, pri: 0).
27 | network_0/router_level3_151/sw_allocator | Input requests = [ 0 -> [ 14@0 ]  4 -> [ 9@0 ]  5 -> [ 12@0 ]  10 -> [ 1@0 ]  13 -> [ 4@0 ]  ], output requests = [ 1 -> [ 10@0 ]  4 -> [ 13@0 ]  9 -> [ 4@0 ]  12 -> [ 5@0 ]  14 -> [ 0@0 ]  ].
27 | network_0/router_level3_151/sw_allocator | Input grants = [ 0 -> 14  4 -> 9  5 -> 12  10 -> 1  13 -> 4  ], output grants = [ 1 -> 10  4 -> 13  9 -> 4  12 -> 5  14 -> 0  ].
27 | network_0/router_level3_151 | Assigning output 1.0 to VC 0 at input 10.0.
27 | network_0/router_level3_151 | Completed switch allocation for VC 0 at input 10 (front: 3).
27 | network_0/router_level3_151 |   Scheduling switch connection from input 10.0 to output 1.0.
27 | network_0/router_level3_171 | Beginning switch allocation for VC 0 at input 10 (front: 6).
27 | network_0/router_level3_171 |   Requesting output 2.0 (non-spec, pri: 0).
27 | network_0/router_level3_171/sw_allocator | Input requests = [ 2 -> [ 14@0 ]  4 -> [ 15@0 ]  10 -> [ 2@0 ]  13 -> [ 5@0 ]  ], output requests = [ 2 -> [ 10@0 ]  5 -> [ 13@0 ]  14 -> [ 2@0 ]  15 -> [ 4@0 ]  ].
27 | network_0/router_level3_171/sw_allocator | Input grants = [ 2 -> 14  4 -> 15  10 -> 2  13 -> 5  ], output grants = [ 2 -> 10  5 -> 13  14 -> 2  15 -> 4  ].
27 | network_0/router_level3_171 | Assigning output 2.0 to VC 0 at input 10.0.
27 | network_0/router_level3_171 | Completed switch allocation for VC 0 at input 10 (front: 6).
27 | network_0/router_level3_171 |   Scheduling switch connection from input 10.0 to output 2.0.
27 | network_0/router_level3_222 | Beginning switch allocation for VC 0 at input 12 (front: 2).
27 | network_0/router_level3_222 |   Requesting output 3.0 (non-spec, pri: 0).
27 | network_0/router_level3_222/sw_allocator | Input requests = [ 1 -> [ 12@0 ]  2 -> [ 9@0 13@0 ]  3 -> [ 14@0 ]  4 -> [ 10@0 ]  12 -> [ 3@0 ]  ], output requests = [ 3 -> [ 12@0 ]  9 -> [ 2@0 ]  10 -> [ 4@0 ]  12 -> [ 1@0 ]  13 -> [ 2@0 ]  14 -> [ 3@0 ]  ].
27 | network_0/router_level3_222/sw_allocator | Input grants = [ 1 -> 12  2 -> 9  3 -> 14  4 -> 10  12 -> 3  ], output grants = [ 3 -> 12  9 -> 2  10 -> 4  12 -> 1  14 -> 3  ].
27 | network_0/router_level3_222 | Assigning output 3.0 to VC 0 at input 12.0.
27 | network_0/router_level3_222 | Completed switch allocation for VC 0 at input 12 (front: 2).
27 | network_0/router_level3_222 |   Scheduling switch connection from input 12.0 to output 3.0.
27 | network_0/router_level3_224 | Adding flit 8 to VC 1 at input 15 (state: idle, empty).
27 | network_0/router_level3_224 | Using precomputed lookahead routing information for VC 1 at input 15 (front: 8).
27 | network_0/router_level3_224/buf_15/vc_1 | Changing state from idle to vc_alloc.
27 | network_0/router_level3_224 | Beginning VC allocation for VC 1 at input 15 (front: 8).
27 | network_0/router_level3_224 |   Requesting VC 0 at output 3 (in_pri: 0, out_pri: 0).
27 | network_0/router_level3_224 |   Requesting VC 1 at output 3 (in_pri: 0, out_pri: 0).
27 | network_0/router_level3_224 |   Requesting VC 2 at output 3 (in_pri: 0, out_pri: 0).
27 | network_0/router_level3_224 |   Requesting VC 3 at output 3 (in_pri: 0, out_pri: 0).
27 | network_0/router_level3_224/vc_allocator | Input requests = [ 8 -> [ 40@0 41@0 42@0 43@0 ]  32 -> [ 8@0 9@0 10@0 11@0 ]  61 -> [ 12@0 13@0 14@0 15@0 ]  ], output requests = [ 8 -> [ 32@0 ]  9 -> [ 32@0 ]  10 -> [ 32@0 ]  11 -> [ 32@0 ]  12 -> [ 61@0 ]  13 -> [ 61@0 ]  14 -> [ 61@0 ]  15 -> [ 61@0 ]  40 -> [ 8@0 ]  41 -> [ 8@0 ]  42 -> [ 8@0 ]  43 -> [ 8@0 ]  ].
27 | network_0/router_level3_224/vc_allocator | Input grants = [ 8 -> 40  32 -> 8  61 -> 12  ], output grants = [ 8 -> 32  12 -> 61  40 -> 8  ].
27 | network_0/router_level3_224 | Assigning VC 0 at output 3 to VC 1 at input 15.
27 | network_0/router_level3_224 | Completed VC allocation for VC 1 at input 15 (front: 8).
27 | network_0/router_level3_224 |   Acquiring assigned VC 0 at output 3.
27 | network_0/router_level3_224/buf_15/vc_1 | Changing state from vc_alloc to active.
27 | network_0/router_level3_226 | Beginning switch allocation for VC 0 at input 15 (front: 7).
27 | network_0/router_level3_226 |   Requesting output 2.0 (non-spec, pri: 0).
27 | network_0/router_level3_226/sw_allocator | Input requests = [ 14 -> [ 5@0 ]  15 -> [ 2@0 ]  ], output requests = [ 2 -> [ 15@0 ]  5 -> [ 14@0 ]  ].
27 | network_0/router_level3_226/sw_allocator | Input grants = [ 14 -> 5  15 -> 2  ], output grants = [ 2 -> 15  5 -> 14  ].
27 | network_0/router_level3_226 | Assigning output 2.0 to VC 0 at input 15.0.
27 | network_0/router_level3_226 | Completed switch allocation for VC 0 at input 15 (front: 7).
27 | network_0/router_level3_226 |   Scheduling switch connection from input 15.0 to output 2.0.
27 | network_0/router_level3_247 | Beginning switch allocation for VC 0 at input 11 (front: 1).
27 | network_0/router_level3_247 |   Requesting output 2.0 (non-spec, pri: 0).
27 | network_0/router_level3_247/sw_allocator | Input requests = [ 0 -> [ 8@0 ]  11 -> [ 2@0 ]  ], output requests = [ 2 -> [ 11@0 ]  8 -> [ 0@0 ]  ].
27 | network_0/router_level3_247/sw_allocator | Input grants = [ 0 -> 8  11 -> 2  ], output grants = [ 2 -> 11  8 -> 0  ].
27 | network_0/router_level3_247 | Assigning output 2.0 to VC 0 at input 11.0.
27 | network_0/router_level3_247 | Completed switch allocation for VC 0 at input 11 (front: 1).
27 | network_0/router_level3_247 |   Scheduling switch connection from input 11.0 to output 2.0.
27 | network_0/router_level3_305 | Beginning switch allocation for VC 0 at input 8 (front: 4).
27 | network_0/router_level3_305 |   Requesting output 0.0 (non-spec, pri: 0).
27 | network_0/router_level3_305/sw_allocator | Input requests = [ 5 -> [ 14@0 ]  8 -> [ 0@0 ]  13 -> [ 1@0 ]  ], output requests = [ 0 -> [ 8@0 ]  1 -> [ 13@0 ]  14 -> [ 5@0 ]  ].
27 | network_0/router_level3_305/sw_allocator | Input grants = [ 5 -> 14  8 -> 0  13 -> 1  ], output grants = [ 0 -> 8  1 -> 13  14 -> 5  ].
27 | network_0/router_level3_305 | Assigning output 0.0 to VC 0 at input 8.0.
27 | network_0/router_level3_305 | Completed switch allocation for VC 0 at input 8 (front: 4).
27 | network_0/router_level3_305 |   Scheduling switch connection from input 8.0 to output 0.0.
27 | network_0/router_level3_485 | Beginning switch allocation for VC 0 at input 8 (front: 5).
27 | network_0/router_level3_485 |   Requesting output 6.0 (non-spec, pri: 0).
27 | network_0/router_level3_485/sw_allocator | Input requests = [ 6 -> [ 12@0 ]  7 -> [ 14@0 ]  8 -> [ 6@0 ]  ], output requests = [ 6 -> [ 8@0 ]  12 -> [ 6@0 ]  14 -> [ 7@0 ]  ].
27 | network_0/router_level3_485/sw_allocator | Input grants = [ 6 -> 12  7 -> 14  8 -> 6  ], output grants = [ 6 -> 8  12 -> 6  14 -> 7  ].
27 | network_0/router_level3_485 | Assigning output 6.0 to VC 0 at input 8.0.
27 | network_0/router_level3_485 | Completed switch allocation for VC 0 at input 8 (front: 5).
27 | network_0/router_level3_485 |   Scheduling switch connection from input 8.0 to output 6.0.
28 | network_0/router_level3_129 | Beginning crossbar traversal for flit 10 from input 13.0 to output 6.0.
28 | network_0/router_level3_129 | Completed crossbar traversal for flit 10 from input 13.0 to output 6.0.
28 | network_0/router_level3_129 | Buffering flit 10 at output 6.
28 | network_0/router_level3_151 | Beginning crossbar traversal for flit 3 from input 10.0 to output 1.0.
28 | network_0/router_level3_151 | Completed crossbar traversal for flit 3 from input 10.0 to output 1.0.
28 | network_0/router_level3_151 | Buffering flit 3 at output 1.
28 | network_0/router_level3_171 | Beginning crossbar traversal for flit 6 from input 10.0 to output 2.0.
28 | network_0/router_level3_171 | Completed crossbar traversal for flit 6 from input 10.0 to output 2.0.
28 | network_0/router_level3_171 | Buffering flit 6 at output 2.
28 | network_0/router_level3_222 | Beginning crossbar traversal for flit 2 from input 12.0 to output 3.0.
28 | network_0/router_level3_222 | Completed crossbar traversal for flit 2 from input 12.0 to output 3.0.
28 | network_0/router_level3_222 | Buffering flit 2 at output 3.
28 | network_0/router_level3_224 | Beginning switch allocation for VC 1 at input 15 (front: 8).
28 | network_0/router_level3_224 |   Requesting output 3.0 (non-spec, pri: 0).
28 | network_0/router_level3_224/sw_allocator | Input requests = [ 2 -> [ 10@0 ]  8 -> [ 2@0 ]  15 -> [ 3@0 ]  ], output requests = [ 2 -> [ 8@0 ]  3 -> [ 15@0 ]  10 -> [ 2@0 ]  ].
28 | network_0/router_level3_224/sw_allocator | Input grants = [ 2 -> 10  8 -> 2  15 -> 3  ], output grants = [ 2 -> 8  3 -> 15  10 -> 2  ].
28 | network_0/router_level3_224 | Assigning output 3.0 to VC 1 at input 15.0.
28 | network_0/router_level3_224 | Completed switch allocation for VC 1 at input 15 (front: 8).
28 | network_0/router_level3_224 |   Scheduling switch connection from input 15.0 to output 3.0.
28 | network_0/router_level3_226 | Beginning crossbar traversal for flit 7 from input 15.0 to output 2.0.
28 | network_0/router_level3_226 | Completed crossbar traversal for flit 7 from input 15.0 to output 2.0.
28 | network_0/router_level3_226 | Buffering flit 7 at output 2.
28 | network_0/router_level3_247 | Beginning crossbar traversal for flit 1 from input 11.0 to output 2.0.
28 | network_0/router_level3_247 | Completed crossbar traversal for flit 1 from input 11.0 to output 2.0.
28 | network_0/router_level3_247 | Buffering flit 1 at output 2.
28 | network_0/router_level3_305 | Beginning crossbar traversal for flit 4 from input 8.0 to output 0.0.
28 | network_0/router_level3_305 | Completed crossbar traversal for flit 4 from input 8.0 to output 0.0.
28 | network_0/router_level3_305 | Buffering flit 4 at output 0.
28 | network_0/router_level3_485 | Beginning crossbar traversal for flit 5 from input 8.0 to output 6.0.
28 | network_0/router_level3_485 | Completed crossbar traversal for flit 5 from input 8.0 to output 6.0.
28 | network_0/router_level3_485 | Buffering flit 5 at output 6.
28 | network_0/router_level3_129 | Sending flit 10 to channel at output 6.
28 | network_0/router_level3_151 | Sending flit 3 to channel at output 1.
28 | network_0/router_level3_171 | Sending flit 6 to channel at output 2.
28 | network_0/router_level3_222 | Sending flit 2 to channel at output 3.
28 | network_0/router_level3_226 | Sending flit 7 to channel at output 2.
28 | network_0/router_level3_247 | Sending flit 1 to channel at output 2.
28 | network_0/router_level3_305 | Sending flit 4 to channel at output 0.
28 | network_0/router_level3_485 | Sending flit 5 to channel at output 6.
29 | network_0/network_0_fchan_egress1038 | Beginning channel traversal for flit 10 with delay 1.
29 | network_0/network_0_fchan_egress1209 | Beginning channel traversal for flit 3 with delay 1.
29 | network_0/network_0_fchan_egress1370 | Beginning channel traversal for flit 6 with delay 1.
29 | network_0/network_0_fchan_egress1779 | Beginning channel traversal for flit 2 with delay 1.
29 | network_0/network_0_fchan_egress1810 | Beginning channel traversal for flit 7 with delay 1.
29 | network_0/network_0_fchan_egress1978 | Beginning channel traversal for flit 1 with delay 1.
29 | network_0/network_0_fchan_egress2440 | Beginning channel traversal for flit 4 with delay 1.
29 | network_0/network_0_fchan_egress3886 | Beginning channel traversal for flit 5 with delay 1.
29 | network_0/router_level3_224 | Beginning crossbar traversal for flit 8 from input 15.0 to output 3.0.
29 | network_0/router_level3_224 | Completed crossbar traversal for flit 8 from input 15.0 to output 3.0.
29 | network_0/router_level3_224 | Buffering flit 8 at output 3.
29 | network_0/network_0_fchan_egress1038 | Completed channel traversal for flit 10.
29 | network_0/network_0_fchan_egress1209 | Completed channel traversal for flit 3.
29 | network_0/network_0_fchan_egress1370 | Completed channel traversal for flit 6.
29 | network_0/network_0_fchan_egress1779 | Completed channel traversal for flit 2.
29 | network_0/network_0_fchan_egress1810 | Completed channel traversal for flit 7.
29 | network_0/network_0_fchan_egress1978 | Completed channel traversal for flit 1.
29 | network_0/network_0_fchan_egress2440 | Completed channel traversal for flit 4.
29 | network_0/network_0_fchan_egress3886 | Completed channel traversal for flit 5.
29 | network_0/router_level3_224 | Sending flit 8 to channel at output 3.
30 | node1038 | Ejecting flit 10 (packet 10) from VC 0.
30 | node1209 | Ejecting flit 3 (packet 3) from VC 0.
30 | node1370 | Ejecting flit 6 (packet 6) from VC 0.
30 | node1779 | Ejecting flit 2 (packet 2) from VC 0.
30 | node1810 | Ejecting flit 7 (packet 7) from VC 0.
30 | node1978 | Ejecting flit 1 (packet 1) from VC 0.
30 | node2440 | Ejecting flit 4 (packet 4) from VC 0.
30 | node3886 | Ejecting flit 5 (packet 5) from VC 0.
30 | network_0/network_0_fchan_egress1795 | Beginning channel traversal for flit 8 with delay 1.
30 | node1038 | Injecting credit for VC 0 into subnet 0.
30 | node1038 | Retiring flit 10 (packet 10, src = 58, dest = 1038, hops = 7, flat = 30).
30 | node1038 | Retiring packet 10 (plat = 30, nlat = 30, frag = 0, src = 58, dest = 1038).
30 | node1209 | Injecting credit for VC 0 into subnet 0.
30 | node1209 | Retiring flit 3 (packet 3, src = 31, dest = 1209, hops = 7, flat = 30).
30 | node1209 | Retiring packet 3 (plat = 30, nlat = 30, frag = 0, src = 31, dest = 1209).
30 | node1370 | Injecting credit for VC 0 into subnet 0.
30 | node1370 | Retiring flit 6 (packet 6, src = 47, dest = 1370, hops = 7, flat = 30).
30 | node1370 | Retiring packet 6 (plat = 30, nlat = 30, frag = 0, src = 47, dest = 1370).
30 | node1779 | Injecting credit for VC 0 into subnet 0.
30 | node1779 | Retiring flit 2 (packet 2, src = 18, dest = 1779, hops = 7, flat = 30).
30 | node1779 | Retiring packet 2 (plat = 30, nlat = 30, frag = 0, src = 18, dest = 1779).
30 | node1810 | Injecting credit for VC 0 into subnet 0.
30 | node1810 | Retiring flit 7 (packet 7, src = 53, dest = 1810, hops = 7, flat = 30).
30 | node1810 | Retiring packet 7 (plat = 30, nlat = 30, frag = 0, src = 53, dest = 1810).
30 | node1978 | Injecting credit for VC 0 into subnet 0.
30 | node1978 | Retiring flit 1 (packet 1, src = 15, dest = 1978, hops = 7, flat = 30).
30 | node1978 | Retiring packet 1 (plat = 30, nlat = 30, frag = 0, src = 15, dest = 1978).
30 | node2440 | Injecting credit for VC 0 into subnet 0.
30 | node2440 | Retiring flit 4 (packet 4, src = 34, dest = 2440, hops = 7, flat = 30).
30 | node2440 | Retiring packet 4 (plat = 30, nlat = 30, frag = 0, src = 34, dest = 2440).
30 | node3886 | Injecting credit for VC 0 into subnet 0.
30 | node3886 | Retiring flit 5 (packet 5, src = 40, dest = 3886, hops = 7, flat = 30).
30 | node3886 | Retiring packet 5 (plat = 30, nlat = 30, frag = 0, src = 40, dest = 3886).
30 | network_0/network_0_fchan_egress1795 | Completed channel traversal for flit 8.
31 | node1795 | Ejecting flit 8 (packet 8) from VC 0.
31 | node1795 | Injecting credit for VC 0 into subnet 0.
31 | node1795 | Retiring flit 8 (packet 8, src = 54, dest = 1795, hops = 7, flat = 31).
31 | node1795 | Retiring packet 8 (plat = 31, nlat = 31, frag = 0, src = 54, dest = 1795).
Class 0:
Packet latency average = 125.342
	minimum = 6
	maximum = 552
Network latency average = 125.342
	minimum = 6
	maximum = 552
Slowest packet = 433503
Flit latency average = 125.342
	minimum = 6
	maximum = 552
Slowest flit = 433503
Fragmentation average = 0
	minimum = 0
	maximum = 0
Injected packet rate average = 0.249846
	minimum = 0.203 (at node 2897)
	maximum = 0.294 (at node 1603)
Accepted packet rate average = 0.191426
	minimum = 0.14 (at node 2348)
	maximum = 0.241 (at node 2654)
Injected flit rate average = 0.249846
	minimum = 0.203 (at node 2897)
	maximum = 0.294 (at node 1603)
Accepted flit rate average= 0.191426
	minimum = 0.14 (at node 2348)
	maximum = 0.241 (at node 2654)
Injected packet length average = 1
Accepted packet length average = 1
Total in-flight flits = 239286 (0 measured)
latency change    = 1
throughput change = 1
Class 0:
Packet latency average = 231.365
	minimum = 6
	maximum = 929
Network latency average = 231.365
	minimum = 6
	maximum = 929
Slowest packet = 924798
Flit latency average = 231.365
	minimum = 6
	maximum = 929
Slowest flit = 924798
Fragmentation average = 0
	minimum = 0
	maximum = 0
Injected packet rate average = 0.249933
	minimum = 0.2175 (at node 3875)
	maximum = 0.282 (at node 3493)
Accepted packet rate average = 0.193728
	minimum = 0.16 (at node 2919)
	maximum = 0.2315 (at node 2954)
Injected flit rate average = 0.249933
	minimum = 0.2175 (at node 3875)
	maximum = 0.282 (at node 3493)
Accepted flit rate average= 0.193728
	minimum = 0.16 (at node 2919)
	maximum = 0.2315 (at node 2954)
Injected packet length average = 1
Accepted packet length average = 1
Total in-flight flits = 460440 (0 measured)
latency change    = 0.45825
throughput change = 0.0118795
Class 0:
Packet latency average = 549.816
	minimum = 6
	maximum = 1600
Network latency average = 549.659
	minimum = 6
	maximum = 1600
Slowest packet = 1425070
Flit latency average = 549.659
	minimum = 6
	maximum = 1600
Slowest flit = 1425070
Fragmentation average = 0
	minimum = 0
	maximum = 0
Injected packet rate average = 0.237494
	minimum = 0.126 (at node 3602)
	maximum = 0.291 (at node 2218)
Accepted packet rate average = 0.194753
	minimum = 0.148 (at node 2498)
	maximum = 0.245 (at node 2314)
Injected flit rate average = 0.237494
	minimum = 0.126 (at node 3602)
	maximum = 0.291 (at node 2218)
Accepted flit rate average= 0.194753
	minimum = 0.148 (at node 2498)
	maximum = 0.245 (at node 2314)
Injected packet length average = 1
Accepted packet length average = 1
Total in-flight flits = 637102 (0 measured)
latency change    = 0.579196
throughput change = 0.00526695
Warmed up ...Time used is 3000 cycles
Class 0:
Packet latency average = 653.598
	minimum = 6
	maximum = 1477
Network latency average = 588.122
	minimum = 6
	maximum = 999
Slowest packet = 3026214
Flit latency average = 740.478
	minimum = 6
	maximum = 1998
Slowest flit = 1797363
Fragmentation average = 0
	minimum = 0
	maximum = 0
Injected packet rate average = 0.199733
	minimum = 0.059 (at node 1280)
	maximum = 0.301 (at node 1663)
Accepted packet rate average = 0.195161
	minimum = 0.145 (at node 2014)
	maximum = 0.255 (at node 634)
Injected flit rate average = 0.199733
	minimum = 0.059 (at node 1280)
	maximum = 0.301 (at node 1663)
Accepted flit rate average= 0.195161
	minimum = 0.145 (at node 2014)
	maximum = 0.255 (at node 634)
Injected packet length average = 1
Accepted packet length average = 1
Total in-flight flits = 657245 (625319 measured)
latency change    = 0.158785
throughput change = 0.00208662
Average latency for class 0 exceeded 500 cycles. Aborting simulation.
Too many sample periods needed to converge
Simulation unstable, ending ...
Total run time 451.134
