BEGIN Configuration File: examples/fattree_config_0.65_1_transpose
// $Id: dragonflyconfig 3555 2011-05-16 23:37:55Z dub $

// Copyright (c) 2007-2015, Trustees of The Leland Stanford Junior University
// All rights reserved.
//
// Redistribution and use in source and binary forms, with or without
// modification, are permitted provided that the following conditions are met:
//
// Redistributions of source code must retain the above copyright notice, this
// list of conditions and the following disclaimer.
// Redistributions in binary form must reproduce the above copyright notice,
// this list of conditions and the following disclaimer in the documentation
// and/or other materials provided with the distribution.
//
// THIS SOFTWARE IS PROVIDED BY THE COPYRIGHT HOLDERS AND CONTRIBUTORS "AS IS"
// AND ANY EXPRESS OR IMPLIED WARRANTIES, INCLUDING, BUT NOT LIMITED TO, THE
// IMPLIED WARRANTIES OF MERCHANTABILITY AND FITNESS FOR A PARTICULAR PURPOSE
// ARE DISCLAIMED. IN NO EVENT SHALL THE COPYRIGHT OWNER OR CONTRIBUTORS BE
// LIABLE FOR ANY DIRECT, INDIRECT, INCIDENTAL, SPECIAL, EXEMPLARY, OR
// CONSEQUENTIAL DAMAGES (INCLUDING, BUT NOT LIMITED TO, PROCUREMENT OF
// SUBSTITUTE GOODS OR SERVICES; LOSS OF USE, DATA, OR PROFITS; OR BUSINESS
// INTERRUPTION) HOWEVER CAUSED AND ON ANY THEORY OF LIABILITY, WHETHER IN
// CONTRACT, STRICT LIABILITY, OR TORT (INCLUDING NEGLIGENCE OR OTHERWISE)
// ARISING IN ANY WAY OUT OF THE USE OF THIS SOFTWARE, EVEN IF ADVISED OF THE
// POSSIBILITY OF SUCH DAMAGE.


hold_switch_for_packet=1;

vc_buf_size = 16;


wait_for_tail_credit = 0;

//
// Router architecture
//
vc_allocator = separable_input_first; 
sw_allocator = separable_input_first;
alloc_iters  = 1;

credit_delay   = 2;
routing_delay  = 0;
vc_alloc_delay = 1;
sw_alloc_delay = 1;
st_final_delay = 1;

input_speedup     = 1;
output_speedup    = 1;
internal_speedup  = 1.0;


warmup_periods = 3;
sim_count          = 1;

sample_period  = 1000;  

routing_function = nca;
num_vcs     = 4;

priority = none;
traffic = transpose;


injection_rate = 0.65;
packet_size = 1;
injection_rate_uses_flits=1;

topology = fattree;

k  = 8;
n  = 4;
t = 1;

watch_file = watchfile.txt;
watch_out=-;
stats_out = examples/fattree_config_0.65_1_transpose.m;

END Configuration File: examples/fattree_config_0.65_1_transpose
Fat Tree
 k = 8 levels = 4
 each switch - total radix =  16
 # of switches = 2048
 # of channels = 24576
 # of nodes ( size of network ) = 4096
 tapering factor = 1
0 | node4 | Enqueuing flit 1 (packet 1) at time 0.
0 | node5 | Enqueuing flit 2 (packet 2) at time 0.
0 | node8 | Enqueuing flit 3 (packet 3) at time 0.
0 | node9 | Enqueuing flit 4 (packet 4) at time 0.
0 | node11 | Enqueuing flit 5 (packet 5) at time 0.
0 | node12 | Enqueuing flit 6 (packet 6) at time 0.
0 | node13 | Enqueuing flit 7 (packet 7) at time 0.
0 | node14 | Enqueuing flit 8 (packet 8) at time 0.
0 | node15 | Enqueuing flit 9 (packet 9) at time 0.
0 | node17 | Enqueuing flit 10 (packet 10) at time 0.
0 | traffic_manager | Finding output VC for flit 1:
0 | traffic_manager |   Selected output VC 0.
0 | node4 | Generating lookahead routing info for flit 1.
0 | node4 | Injecting flit 1 into subnet 0 at time 0 with priority 0.
0 | traffic_manager | Finding output VC for flit 2:
0 | traffic_manager |   Selected output VC 0.
0 | node5 | Generating lookahead routing info for flit 2.
0 | node5 | Injecting flit 2 into subnet 0 at time 0 with priority 0.
0 | traffic_manager | Finding output VC for flit 3:
0 | traffic_manager |   Selected output VC 0.
0 | node8 | Generating lookahead routing info for flit 3.
0 | node8 | Injecting flit 3 into subnet 0 at time 0 with priority 0.
0 | traffic_manager | Finding output VC for flit 4:
0 | traffic_manager |   Selected output VC 0.
0 | node9 | Generating lookahead routing info for flit 4.
0 | node9 | Injecting flit 4 into subnet 0 at time 0 with priority 0.
0 | traffic_manager | Finding output VC for flit 5:
0 | traffic_manager |   Selected output VC 0.
0 | node11 | Generating lookahead routing info for flit 5.
0 | node11 | Injecting flit 5 into subnet 0 at time 0 with priority 0.
0 | traffic_manager | Finding output VC for flit 6:
0 | traffic_manager |   Selected output VC 0.
0 | node12 | Generating lookahead routing info for flit 6.
0 | node12 | Injecting flit 6 into subnet 0 at time 0 with priority 0.
0 | traffic_manager | Finding output VC for flit 7:
0 | traffic_manager |   Selected output VC 0.
0 | node13 | Generating lookahead routing info for flit 7.
0 | node13 | Injecting flit 7 into subnet 0 at time 0 with priority 0.
0 | traffic_manager | Finding output VC for flit 8:
0 | traffic_manager |   Selected output VC 0.
0 | node14 | Generating lookahead routing info for flit 8.
0 | node14 | Injecting flit 8 into subnet 0 at time 0 with priority 0.
0 | traffic_manager | Finding output VC for flit 9:
0 | traffic_manager |   Selected output VC 0.
0 | node15 | Generating lookahead routing info for flit 9.
0 | node15 | Injecting flit 9 into subnet 0 at time 0 with priority 0.
0 | traffic_manager | Finding output VC for flit 10:
0 | traffic_manager |   Selected output VC 0.
0 | node17 | Generating lookahead routing info for flit 10.
0 | node17 | Injecting flit 10 into subnet 0 at time 0 with priority 0.
1 | network_0/network_0_fchan_ingress4 | Beginning channel traversal for flit 1 with delay 1.
1 | network_0/network_0_fchan_ingress5 | Beginning channel traversal for flit 2 with delay 1.
1 | network_0/network_0_fchan_ingress8 | Beginning channel traversal for flit 3 with delay 1.
1 | network_0/network_0_fchan_ingress9 | Beginning channel traversal for flit 4 with delay 1.
1 | network_0/network_0_fchan_ingress11 | Beginning channel traversal for flit 5 with delay 1.
1 | network_0/network_0_fchan_ingress12 | Beginning channel traversal for flit 6 with delay 1.
1 | network_0/network_0_fchan_ingress13 | Beginning channel traversal for flit 7 with delay 1.
1 | network_0/network_0_fchan_ingress14 | Beginning channel traversal for flit 8 with delay 1.
1 | network_0/network_0_fchan_ingress15 | Beginning channel traversal for flit 9 with delay 1.
1 | network_0/network_0_fchan_ingress17 | Beginning channel traversal for flit 10 with delay 1.
1 | network_0/network_0_fchan_ingress4 | Completed channel traversal for flit 1.
1 | network_0/network_0_fchan_ingress5 | Completed channel traversal for flit 2.
1 | network_0/network_0_fchan_ingress8 | Completed channel traversal for flit 3.
1 | network_0/network_0_fchan_ingress9 | Completed channel traversal for flit 4.
1 | network_0/network_0_fchan_ingress11 | Completed channel traversal for flit 5.
1 | network_0/network_0_fchan_ingress12 | Completed channel traversal for flit 6.
1 | network_0/network_0_fchan_ingress13 | Completed channel traversal for flit 7.
1 | network_0/network_0_fchan_ingress14 | Completed channel traversal for flit 8.
1 | network_0/network_0_fchan_ingress15 | Completed channel traversal for flit 9.
1 | network_0/network_0_fchan_ingress17 | Completed channel traversal for flit 10.
2 | network_0/router_level3_0 | Received flit 1 from channel at input 4.
2 | network_0/router_level3_0 | Received flit 2 from channel at input 5.
2 | network_0/router_level3_1 | Received flit 3 from channel at input 0.
2 | network_0/router_level3_1 | Received flit 4 from channel at input 1.
2 | network_0/router_level3_1 | Received flit 5 from channel at input 3.
2 | network_0/router_level3_1 | Received flit 6 from channel at input 4.
2 | network_0/router_level3_1 | Received flit 7 from channel at input 5.
2 | network_0/router_level3_1 | Received flit 8 from channel at input 6.
2 | network_0/router_level3_1 | Received flit 9 from channel at input 7.
2 | network_0/router_level3_2 | Received flit 10 from channel at input 1.
2 | network_0/router_level3_0 | Adding flit 1 to VC 0 at input 4 (state: idle, empty).
2 | network_0/router_level3_0 | Using precomputed lookahead routing information for VC 0 at input 4 (front: 1).
2 | network_0/router_level3_0/buf_4/vc_0 | Changing state from idle to vc_alloc.
2 | network_0/router_level3_0 | Adding flit 2 to VC 0 at input 5 (state: idle, empty).
2 | network_0/router_level3_0 | Using precomputed lookahead routing information for VC 0 at input 5 (front: 2).
2 | network_0/router_level3_0/buf_5/vc_0 | Changing state from idle to vc_alloc.
2 | network_0/router_level3_0 | Beginning VC allocation for VC 0 at input 4 (front: 1).
2 | network_0/router_level3_0 |   Requesting VC 0 at output 15 (in_pri: 0, out_pri: 0).
2 | network_0/router_level3_0 |   Requesting VC 1 at output 15 (in_pri: 0, out_pri: 0).
2 | network_0/router_level3_0 |   Requesting VC 2 at output 15 (in_pri: 0, out_pri: 0).
2 | network_0/router_level3_0 |   Requesting VC 3 at output 15 (in_pri: 0, out_pri: 0).
2 | network_0/router_level3_0 | Beginning VC allocation for VC 0 at input 5 (front: 2).
2 | network_0/router_level3_0 |   Requesting VC 0 at output 15 (in_pri: 0, out_pri: 0).
2 | network_0/router_level3_0 |   Requesting VC 1 at output 15 (in_pri: 0, out_pri: 0).
2 | network_0/router_level3_0 |   Requesting VC 2 at output 15 (in_pri: 0, out_pri: 0).
2 | network_0/router_level3_0 |   Requesting VC 3 at output 15 (in_pri: 0, out_pri: 0).
2 | network_0/router_level3_0/vc_allocator | Input requests = [ 4 -> [ 36@0 37@0 38@0 39@0 ]  16 -> [ 60@0 61@0 62@0 63@0 ]  20 -> [ 60@0 61@0 62@0 63@0 ]  ], output requests = [ 36 -> [ 4@0 ]  37 -> [ 4@0 ]  38 -> [ 4@0 ]  39 -> [ 4@0 ]  60 -> [ 16@0 20@0 ]  61 -> [ 16@0 20@0 ]  62 -> [ 16@0 20@0 ]  63 -> [ 16@0 20@0 ]  ].
2 | network_0/router_level3_0/vc_allocator | Input grants = [ 4 -> 36  16 -> 60  ], output grants = [ 36 -> 4  60 -> 16  ].
2 | network_0/router_level3_0 | Assigning VC 0 at output 15 to VC 0 at input 4.
2 | network_0/router_level3_0 | VC allocation failed for VC 0 at input 5.
2 | network_0/router_level3_0 | Completed VC allocation for VC 0 at input 4 (front: 1).
2 | network_0/router_level3_0 |   Acquiring assigned VC 0 at output 15.
2 | network_0/router_level3_0/buf_4/vc_0 | Changing state from vc_alloc to active.
2 | network_0/router_level3_0 | Completed VC allocation for VC 0 at input 5 (front: 2).
2 | network_0/router_level3_0 |   No output VC allocated.
2 | network_0/router_level3_1 | Adding flit 3 to VC 0 at input 0 (state: idle, empty).
2 | network_0/router_level3_1 | Using precomputed lookahead routing information for VC 0 at input 0 (front: 3).
2 | network_0/router_level3_1/buf_0/vc_0 | Changing state from idle to vc_alloc.
2 | network_0/router_level3_1 | Adding flit 4 to VC 0 at input 1 (state: idle, empty).
2 | network_0/router_level3_1 | Using precomputed lookahead routing information for VC 0 at input 1 (front: 4).
2 | network_0/router_level3_1/buf_1/vc_0 | Changing state from idle to vc_alloc.
2 | network_0/router_level3_1 | Adding flit 5 to VC 0 at input 3 (state: idle, empty).
2 | network_0/router_level3_1 | Using precomputed lookahead routing information for VC 0 at input 3 (front: 5).
2 | network_0/router_level3_1/buf_3/vc_0 | Changing state from idle to vc_alloc.
2 | network_0/router_level3_1 | Adding flit 6 to VC 0 at input 4 (state: idle, empty).
2 | network_0/router_level3_1 | Using precomputed lookahead routing information for VC 0 at input 4 (front: 6).
2 | network_0/router_level3_1/buf_4/vc_0 | Changing state from idle to vc_alloc.
2 | network_0/router_level3_1 | Adding flit 7 to VC 0 at input 5 (state: idle, empty).
2 | network_0/router_level3_1 | Using precomputed lookahead routing information for VC 0 at input 5 (front: 7).
2 | network_0/router_level3_1/buf_5/vc_0 | Changing state from idle to vc_alloc.
2 | network_0/router_level3_1 | Adding flit 8 to VC 0 at input 6 (state: idle, empty).
2 | network_0/router_level3_1 | Using precomputed lookahead routing information for VC 0 at input 6 (front: 8).
2 | network_0/router_level3_1/buf_6/vc_0 | Changing state from idle to vc_alloc.
2 | network_0/router_level3_1 | Adding flit 9 to VC 0 at input 7 (state: idle, empty).
2 | network_0/router_level3_1 | Using precomputed lookahead routing information for VC 0 at input 7 (front: 9).
2 | network_0/router_level3_1/buf_7/vc_0 | Changing state from idle to vc_alloc.
2 | network_0/router_level3_1 | Beginning VC allocation for VC 0 at input 0 (front: 3).
2 | network_0/router_level3_1 |   Requesting VC 0 at output 15 (in_pri: 0, out_pri: 0).
2 | network_0/router_level3_1 |   Requesting VC 1 at output 15 (in_pri: 0, out_pri: 0).
2 | network_0/router_level3_1 |   Requesting VC 2 at output 15 (in_pri: 0, out_pri: 0).
2 | network_0/router_level3_1 |   Requesting VC 3 at output 15 (in_pri: 0, out_pri: 0).
2 | network_0/router_level3_1 | Beginning VC allocation for VC 0 at input 1 (front: 4).
2 | network_0/router_level3_1 |   Requesting VC 0 at output 9 (in_pri: 0, out_pri: 0).
2 | network_0/router_level3_1 |   Requesting VC 1 at output 9 (in_pri: 0, out_pri: 0).
2 | network_0/router_level3_1 |   Requesting VC 2 at output 9 (in_pri: 0, out_pri: 0).
2 | network_0/router_level3_1 |   Requesting VC 3 at output 9 (in_pri: 0, out_pri: 0).
2 | network_0/router_level3_1 | Beginning VC allocation for VC 0 at input 3 (front: 5).
2 | network_0/router_level3_1 |   Requesting VC 0 at output 9 (in_pri: 0, out_pri: 0).
2 | network_0/router_level3_1 |   Requesting VC 1 at output 9 (in_pri: 0, out_pri: 0).
2 | network_0/router_level3_1 |   Requesting VC 2 at output 9 (in_pri: 0, out_pri: 0).
2 | network_0/router_level3_1 |   Requesting VC 3 at output 9 (in_pri: 0, out_pri: 0).
2 | network_0/router_level3_1 | Beginning VC allocation for VC 0 at input 4 (front: 6).
2 | network_0/router_level3_1 |   Requesting VC 0 at output 12 (in_pri: 0, out_pri: 0).
2 | network_0/router_level3_1 |   Requesting VC 1 at output 12 (in_pri: 0, out_pri: 0).
2 | network_0/router_level3_1 |   Requesting VC 2 at output 12 (in_pri: 0, out_pri: 0).
2 | network_0/router_level3_1 |   Requesting VC 3 at output 12 (in_pri: 0, out_pri: 0).
2 | network_0/router_level3_1 | Beginning VC allocation for VC 0 at input 5 (front: 7).
2 | network_0/router_level3_1 |   Requesting VC 0 at output 11 (in_pri: 0, out_pri: 0).
2 | network_0/router_level3_1 |   Requesting VC 1 at output 11 (in_pri: 0, out_pri: 0).
2 | network_0/router_level3_1 |   Requesting VC 2 at output 11 (in_pri: 0, out_pri: 0).
2 | network_0/router_level3_1 |   Requesting VC 3 at output 11 (in_pri: 0, out_pri: 0).
2 | network_0/router_level3_1 | Beginning VC allocation for VC 0 at input 6 (front: 8).
2 | network_0/router_level3_1 |   Requesting VC 0 at output 10 (in_pri: 0, out_pri: 0).
2 | network_0/router_level3_1 |   Requesting VC 1 at output 10 (in_pri: 0, out_pri: 0).
2 | network_0/router_level3_1 |   Requesting VC 2 at output 10 (in_pri: 0, out_pri: 0).
2 | network_0/router_level3_1 |   Requesting VC 3 at output 10 (in_pri: 0, out_pri: 0).
2 | network_0/router_level3_1 | Beginning VC allocation for VC 0 at input 7 (front: 9).
2 | network_0/router_level3_1 |   Requesting VC 0 at output 14 (in_pri: 0, out_pri: 0).
2 | network_0/router_level3_1 |   Requesting VC 1 at output 14 (in_pri: 0, out_pri: 0).
2 | network_0/router_level3_1 |   Requesting VC 2 at output 14 (in_pri: 0, out_pri: 0).
2 | network_0/router_level3_1 |   Requesting VC 3 at output 14 (in_pri: 0, out_pri: 0).
2 | network_0/router_level3_1/vc_allocator | Input requests = [ 0 -> [ 60@0 61@0 62@0 63@0 ]  4 -> [ 36@0 37@0 38@0 39@0 ]  12 -> [ 36@0 37@0 38@0 39@0 ]  16 -> [ 48@0 49@0 50@0 51@0 ]  20 -> [ 44@0 45@0 46@0 47@0 ]  24 -> [ 40@0 41@0 42@0 43@0 ]  28 -> [ 56@0 57@0 58@0 59@0 ]  ], output requests = [ 36 -> [ 4@0 12@0 ]  37 -> [ 4@0 12@0 ]  38 -> [ 4@0 12@0 ]  39 -> [ 4@0 12@0 ]  40 -> [ 24@0 ]  41 -> [ 24@0 ]  42 -> [ 24@0 ]  43 -> [ 24@0 ]  44 -> [ 20@0 ]  45 -> [ 20@0 ]  46 -> [ 20@0 ]  47 -> [ 20@0 ]  48 -> [ 16@0 ]  49 -> [ 16@0 ]  50 -> [ 16@0 ]  51 -> [ 16@0 ]  56 -> [ 28@0 ]  57 -> [ 28@0 ]  58 -> [ 28@0 ]  59 -> [ 28@0 ]  60 -> [ 0@0 ]  61 -> [ 0@0 ]  62 -> [ 0@0 ]  63 -> [ 0@0 ]  ].
2 | network_0/router_level3_1/vc_allocator | Input grants = [ 0 -> 60  4 -> 36  16 -> 48  20 -> 44  24 -> 40  28 -> 56  ], output grants = [ 36 -> 4  40 -> 24  44 -> 20  48 -> 16  56 -> 28  60 -> 0  ].
2 | network_0/router_level3_1 | Assigning VC 0 at output 15 to VC 0 at input 0.
2 | network_0/router_level3_1 | Assigning VC 0 at output 9 to VC 0 at input 1.
2 | network_0/router_level3_1 | VC allocation failed for VC 0 at input 3.
2 | network_0/router_level3_1 | Assigning VC 0 at output 12 to VC 0 at input 4.
2 | network_0/router_level3_1 | Assigning VC 0 at output 11 to VC 0 at input 5.
2 | network_0/router_level3_1 | Assigning VC 0 at output 10 to VC 0 at input 6.
2 | network_0/router_level3_1 | Assigning VC 0 at output 14 to VC 0 at input 7.
2 | network_0/router_level3_1 | Completed VC allocation for VC 0 at input 0 (front: 3).
2 | network_0/router_level3_1 |   Acquiring assigned VC 0 at output 15.
2 | network_0/router_level3_1/buf_0/vc_0 | Changing state from vc_alloc to active.
2 | network_0/router_level3_1 | Completed VC allocation for VC 0 at input 1 (front: 4).
2 | network_0/router_level3_1 |   Acquiring assigned VC 0 at output 9.
2 | network_0/router_level3_1/buf_1/vc_0 | Changing state from vc_alloc to active.
2 | network_0/router_level3_1 | Completed VC allocation for VC 0 at input 3 (front: 5).
2 | network_0/router_level3_1 |   No output VC allocated.
2 | network_0/router_level3_1 | Completed VC allocation for VC 0 at input 4 (front: 6).
2 | network_0/router_level3_1 |   Acquiring assigned VC 0 at output 12.
2 | network_0/router_level3_1/buf_4/vc_0 | Changing state from vc_alloc to active.
2 | network_0/router_level3_1 | Completed VC allocation for VC 0 at input 5 (front: 7).
2 | network_0/router_level3_1 |   Acquiring assigned VC 0 at output 11.
2 | network_0/router_level3_1/buf_5/vc_0 | Changing state from vc_alloc to active.
2 | network_0/router_level3_1 | Completed VC allocation for VC 0 at input 6 (front: 8).
2 | network_0/router_level3_1 |   Acquiring assigned VC 0 at output 10.
2 | network_0/router_level3_1/buf_6/vc_0 | Changing state from vc_alloc to active.
2 | network_0/router_level3_1 | Completed VC allocation for VC 0 at input 7 (front: 9).
2 | network_0/router_level3_1 |   Acquiring assigned VC 0 at output 14.
2 | network_0/router_level3_1/buf_7/vc_0 | Changing state from vc_alloc to active.
2 | network_0/router_level3_2 | Adding flit 10 to VC 0 at input 1 (state: idle, empty).
2 | network_0/router_level3_2 | Using precomputed lookahead routing information for VC 0 at input 1 (front: 10).
2 | network_0/router_level3_2/buf_1/vc_0 | Changing state from idle to vc_alloc.
2 | network_0/router_level3_2 | Beginning VC allocation for VC 0 at input 1 (front: 10).
2 | network_0/router_level3_2 |   Requesting VC 0 at output 12 (in_pri: 0, out_pri: 0).
2 | network_0/router_level3_2 |   Requesting VC 1 at output 12 (in_pri: 0, out_pri: 0).
2 | network_0/router_level3_2 |   Requesting VC 2 at output 12 (in_pri: 0, out_pri: 0).
2 | network_0/router_level3_2 |   Requesting VC 3 at output 12 (in_pri: 0, out_pri: 0).
2 | network_0/router_level3_2/vc_allocator | Input requests = [ 4 -> [ 48@0 49@0 50@0 51@0 ]  8 -> [ 36@0 37@0 38@0 39@0 ]  12 -> [ 60@0 61@0 62@0 63@0 ]  16 -> [ 36@0 37@0 38@0 39@0 ]  20 -> [ 48@0 49@0 50@0 51@0 ]  24 -> [ 32@0 33@0 34@0 35@0 ]  28 -> [ 48@0 49@0 50@0 51@0 ]  ], output requests = [ 32 -> [ 24@0 ]  33 -> [ 24@0 ]  34 -> [ 24@0 ]  35 -> [ 24@0 ]  36 -> [ 8@0 16@0 ]  37 -> [ 8@0 16@0 ]  38 -> [ 8@0 16@0 ]  39 -> [ 8@0 16@0 ]  48 -> [ 4@0 20@0 28@0 ]  49 -> [ 4@0 20@0 28@0 ]  50 -> [ 4@0 20@0 28@0 ]  51 -> [ 4@0 20@0 28@0 ]  60 -> [ 12@0 ]  61 -> [ 12@0 ]  62 -> [ 12@0 ]  63 -> [ 12@0 ]  ].
2 | network_0/router_level3_2/vc_allocator | Input grants = [ 4 -> 48  8 -> 36  12 -> 60  24 -> 32  ], output grants = [ 32 -> 24  36 -> 8  48 -> 4  60 -> 12  ].
2 | network_0/router_level3_2 | Assigning VC 0 at output 12 to VC 0 at input 1.
2 | network_0/router_level3_2 | Completed VC allocation for VC 0 at input 1 (front: 10).
2 | network_0/router_level3_2 |   Acquiring assigned VC 0 at output 12.
2 | network_0/router_level3_2/buf_1/vc_0 | Changing state from vc_alloc to active.
3 | network_0/router_level3_0 | Beginning VC allocation for VC 0 at input 5 (front: 2).
3 | network_0/router_level3_0 |   VC 0 at output 15 is in use by VC 0 at input 4 (front flit: 1).
3 | network_0/router_level3_0 |   Requesting VC 1 at output 15 (in_pri: 0, out_pri: 0).
3 | network_0/router_level3_0 |   Requesting VC 2 at output 15 (in_pri: 0, out_pri: 0).
3 | network_0/router_level3_0 |   Requesting VC 3 at output 15 (in_pri: 0, out_pri: 0).
3 | network_0/router_level3_0/vc_allocator | Input requests = [ 0 -> [ 0@0 1@0 2@0 3@0 ]  5 -> [ 44@0 45@0 46@0 47@0 ]  8 -> [ 52@0 53@0 54@0 55@0 ]  12 -> [ 40@0 41@0 42@0 43@0 ]  17 -> [ 37@0 38@0 39@0 ]  20 -> [ 61@0 62@0 63@0 ]  21 -> [ 52@0 53@0 54@0 55@0 ]  24 -> [ 56@0 57@0 58@0 59@0 ]  ], output requests = [ 0 -> [ 0@0 ]  1 -> [ 0@0 ]  2 -> [ 0@0 ]  3 -> [ 0@0 ]  37 -> [ 17@0 ]  38 -> [ 17@0 ]  39 -> [ 17@0 ]  40 -> [ 12@0 ]  41 -> [ 12@0 ]  42 -> [ 12@0 ]  43 -> [ 12@0 ]  44 -> [ 5@0 ]  45 -> [ 5@0 ]  46 -> [ 5@0 ]  47 -> [ 5@0 ]  52 -> [ 8@0 21@0 ]  53 -> [ 8@0 21@0 ]  54 -> [ 8@0 21@0 ]  55 -> [ 8@0 21@0 ]  56 -> [ 24@0 ]  57 -> [ 24@0 ]  58 -> [ 24@0 ]  59 -> [ 24@0 ]  61 -> [ 20@0 ]  62 -> [ 20@0 ]  63 -> [ 20@0 ]  ].
3 | network_0/router_level3_0/vc_allocator | Input grants = [ 0 -> 0  5 -> 44  8 -> 52  12 -> 40  17 -> 37  20 -> 61  24 -> 56  ], output grants = [ 0 -> 0  37 -> 17  40 -> 12  44 -> 5  52 -> 8  56 -> 24  61 -> 20  ].
3 | network_0/router_level3_0 | Assigning VC 1 at output 15 to VC 0 at input 5.
3 | network_0/router_level3_0 | Beginning switch allocation for VC 0 at input 4 (front: 1).
3 | network_0/router_level3_0 |   Requesting output 15.0 (non-spec, pri: 0).
3 | network_0/router_level3_0/sw_allocator | Input requests = [ 1 -> [ 9@0 ]  4 -> [ 15@0 ]  ], output requests = [ 9 -> [ 1@0 ]  15 -> [ 4@0 ]  ].
3 | network_0/router_level3_0/sw_allocator | Input grants = [ 1 -> 9  4 -> 15  ], output grants = [ 9 -> 1  15 -> 4  ].
3 | network_0/router_level3_0 | Assigning output 15.0 to VC 0 at input 4.0.
3 | network_0/router_level3_0 | Completed VC allocation for VC 0 at input 5 (front: 2).
3 | network_0/router_level3_0 |   Acquiring assigned VC 1 at output 15.
3 | network_0/router_level3_0/buf_5/vc_0 | Changing state from vc_alloc to active.
3 | network_0/router_level3_0 | Completed switch allocation for VC 0 at input 4 (front: 1).
3 | network_0/router_level3_0 |   Scheduling switch connection from input 4.0 to output 15.0.
3 | network_0/router_level3_0 | Updating lookahead routing information for flit 1.
3 | network_0/router_level3_1 | Beginning VC allocation for VC 0 at input 3 (front: 5).
3 | network_0/router_level3_1 |   VC 0 at output 9 is in use by VC 0 at input 1 (front flit: 4).
3 | network_0/router_level3_1 |   Requesting VC 1 at output 9 (in_pri: 0, out_pri: 0).
3 | network_0/router_level3_1 |   Requesting VC 2 at output 9 (in_pri: 0, out_pri: 0).
3 | network_0/router_level3_1 |   Requesting VC 3 at output 9 (in_pri: 0, out_pri: 0).
3 | network_0/router_level3_1/vc_allocator | Input requests = [ 5 -> [ 32@0 33@0 34@0 35@0 ]  12 -> [ 37@0 38@0 39@0 ]  17 -> [ 45@0 46@0 47@0 ]  21 -> [ 61@0 62@0 63@0 ]  25 -> [ 61@0 62@0 63@0 ]  ], output requests = [ 32 -> [ 5@0 ]  33 -> [ 5@0 ]  34 -> [ 5@0 ]  35 -> [ 5@0 ]  37 -> [ 12@0 ]  38 -> [ 12@0 ]  39 -> [ 12@0 ]  45 -> [ 17@0 ]  46 -> [ 17@0 ]  47 -> [ 17@0 ]  61 -> [ 21@0 25@0 ]  62 -> [ 21@0 25@0 ]  63 -> [ 21@0 25@0 ]  ].
3 | network_0/router_level3_1/vc_allocator | Input grants = [ 5 -> 32  12 -> 37  17 -> 45  21 -> 61  ], output grants = [ 32 -> 5  37 -> 12  45 -> 17  61 -> 21  ].
3 | network_0/router_level3_1 | Assigning VC 1 at output 9 to VC 0 at input 3.
3 | network_0/router_level3_1 | Beginning switch allocation for VC 0 at input 0 (front: 3).
3 | network_0/router_level3_1 |   Requesting output 15.0 (non-spec, pri: 0).
3 | network_0/router_level3_1 | Beginning switch allocation for VC 0 at input 1 (front: 4).
3 | network_0/router_level3_1 |   Requesting output 9.0 (non-spec, pri: 0).
3 | network_0/router_level3_1 | Beginning switch allocation for VC 0 at input 4 (front: 6).
3 | network_0/router_level3_1 |   Requesting output 12.0 (non-spec, pri: 0).
3 | network_0/router_level3_1 | Beginning switch allocation for VC 0 at input 5 (front: 7).
3 | network_0/router_level3_1 |   Requesting output 11.0 (non-spec, pri: 0).
3 | network_0/router_level3_1 | Beginning switch allocation for VC 0 at input 6 (front: 8).
3 | network_0/router_level3_1 |   Requesting output 10.0 (non-spec, pri: 0).
3 | network_0/router_level3_1 | Beginning switch allocation for VC 0 at input 7 (front: 9).
3 | network_0/router_level3_1 |   Requesting output 14.0 (non-spec, pri: 0).
3 | network_0/router_level3_1/sw_allocator | Input requests = [ 0 -> [ 15@0 ]  1 -> [ 9@0 ]  4 -> [ 12@0 ]  5 -> [ 11@0 ]  6 -> [ 10@0 ]  7 -> [ 14@0 ]  ], output requests = [ 9 -> [ 1@0 ]  10 -> [ 6@0 ]  11 -> [ 5@0 ]  12 -> [ 4@0 ]  14 -> [ 7@0 ]  15 -> [ 0@0 ]  ].
3 | network_0/router_level3_1/sw_allocator | Input grants = [ 0 -> 15  1 -> 9  4 -> 12  5 -> 11  6 -> 10  7 -> 14  ], output grants = [ 9 -> 1  10 -> 6  11 -> 5  12 -> 4  14 -> 7  15 -> 0  ].
3 | network_0/router_level3_1 | Assigning output 15.0 to VC 0 at input 0.0.
3 | network_0/router_level3_1 | Assigning output 9.0 to VC 0 at input 1.0.
3 | network_0/router_level3_1 | Assigning output 12.0 to VC 0 at input 4.0.
3 | network_0/router_level3_1 | Assigning output 11.0 to VC 0 at input 5.0.
3 | network_0/router_level3_1 | Assigning output 10.0 to VC 0 at input 6.0.
3 | network_0/router_level3_1 | Assigning output 14.0 to VC 0 at input 7.0.
3 | network_0/router_level3_1 | Completed VC allocation for VC 0 at input 3 (front: 5).
3 | network_0/router_level3_1 |   Acquiring assigned VC 1 at output 9.
3 | network_0/router_level3_1/buf_3/vc_0 | Changing state from vc_alloc to active.
3 | network_0/router_level3_1 | Completed switch allocation for VC 0 at input 0 (front: 3).
3 | network_0/router_level3_1 |   Scheduling switch connection from input 0.0 to output 15.0.
3 | network_0/router_level3_1 | Updating lookahead routing information for flit 3.
3 | network_0/router_level3_1 | Completed switch allocation for VC 0 at input 1 (front: 4).
3 | network_0/router_level3_1 |   Scheduling switch connection from input 1.0 to output 9.0.
3 | network_0/router_level3_1 | Updating lookahead routing information for flit 4.
3 | network_0/router_level3_1 | Completed switch allocation for VC 0 at input 4 (front: 6).
3 | network_0/router_level3_1 |   Scheduling switch connection from input 4.0 to output 12.0.
3 | network_0/router_level3_1 | Updating lookahead routing information for flit 6.
3 | network_0/router_level3_1 | Completed switch allocation for VC 0 at input 5 (front: 7).
3 | network_0/router_level3_1 |   Scheduling switch connection from input 5.0 to output 11.0.
3 | network_0/router_level3_1 | Updating lookahead routing information for flit 7.
3 | network_0/router_level3_1 | Completed switch allocation for VC 0 at input 6 (front: 8).
3 | network_0/router_level3_1 |   Scheduling switch connection from input 6.0 to output 10.0.
3 | network_0/router_level3_1 | Updating lookahead routing information for flit 8.
3 | network_0/router_level3_1 | Completed switch allocation for VC 0 at input 7 (front: 9).
3 | network_0/router_level3_1 |   Scheduling switch connection from input 7.0 to output 14.0.
3 | network_0/router_level3_1 | Updating lookahead routing information for flit 9.
3 | network_0/router_level3_2 | Beginning switch allocation for VC 0 at input 1 (front: 10).
3 | network_0/router_level3_2 |   Requesting output 12.0 (non-spec, pri: 0).
3 | network_0/router_level3_2/sw_allocator | Input requests = [ 1 -> [ 12@0 ]  2 -> [ 9@0 ]  3 -> [ 15@0 ]  6 -> [ 8@0 ]  ], output requests = [ 8 -> [ 6@0 ]  9 -> [ 2@0 ]  12 -> [ 1@0 ]  15 -> [ 3@0 ]  ].
3 | network_0/router_level3_2/sw_allocator | Input grants = [ 1 -> 12  2 -> 9  3 -> 15  6 -> 8  ], output grants = [ 8 -> 6  9 -> 2  12 -> 1  15 -> 3  ].
3 | network_0/router_level3_2 | Assigning output 12.0 to VC 0 at input 1.0.
3 | network_0/router_level3_2 | Completed switch allocation for VC 0 at input 1 (front: 10).
3 | network_0/router_level3_2 |   Scheduling switch connection from input 1.0 to output 12.0.
3 | network_0/router_level3_2 | Updating lookahead routing information for flit 10.
4 | network_0/router_level3_0 | Beginning switch allocation for VC 0 at input 5 (front: 2).
4 | network_0/router_level3_0 |   Requesting output 15.0 (non-spec, pri: 0).
4 | network_0/router_level3_0/sw_allocator | Input requests = [ 0 -> [ 0@0 ]  1 -> [ 11@0 ]  2 -> [ 13@0 ]  3 -> [ 10@0 ]  4 -> [ 9@0 ]  5 -> [ 15@0 ]  6 -> [ 14@0 ]  ], output requests = [ 0 -> [ 0@0 ]  9 -> [ 4@0 ]  10 -> [ 3@0 ]  11 -> [ 1@0 ]  13 -> [ 2@0 ]  14 -> [ 6@0 ]  15 -> [ 5@0 ]  ].
4 | network_0/router_level3_0/sw_allocator | Input grants = [ 0 -> 0  1 -> 11  2 -> 13  3 -> 10  4 -> 9  5 -> 15  6 -> 14  ], output grants = [ 0 -> 0  9 -> 4  10 -> 3  11 -> 1  13 -> 2  14 -> 6  15 -> 5  ].
4 | network_0/router_level3_0 | Assigning output 15.0 to VC 0 at input 5.0.
4 | network_0/router_level3_0 | Beginning crossbar traversal for flit 1 from input 4.0 to output 15.0.
4 | network_0/router_level3_0 | Completed switch allocation for VC 0 at input 5 (front: 2).
4 | network_0/router_level3_0 |   Scheduling switch connection from input 5.0 to output 15.0.
4 | network_0/router_level3_0 | Updating lookahead routing information for flit 2.
4 | network_0/router_level3_0 | Completed crossbar traversal for flit 1 from input 4.0 to output 15.0.
4 | network_0/router_level3_0 | Buffering flit 1 at output 15.
4 | network_0/router_level3_1 | Beginning switch allocation for VC 0 at input 3 (front: 5).
4 | network_0/router_level3_1 |   Requesting output 9.0 (non-spec, pri: 0).
4 | network_0/router_level3_1/sw_allocator | Input requests = [ 1 -> [ 8@0 ]  3 -> [ 9@0 ]  4 -> [ 11@0 ]  5 -> [ 15@0 ]  ], output requests = [ 8 -> [ 1@0 ]  9 -> [ 3@0 ]  11 -> [ 4@0 ]  15 -> [ 5@0 ]  ].
4 | network_0/router_level3_1/sw_allocator | Input grants = [ 1 -> 8  3 -> 9  4 -> 11  5 -> 15  ], output grants = [ 8 -> 1  9 -> 3  11 -> 4  15 -> 5  ].
4 | network_0/router_level3_1 | Assigning output 9.0 to VC 0 at input 3.0.
4 | network_0/router_level3_1 | Beginning crossbar traversal for flit 3 from input 0.0 to output 15.0.
4 | network_0/router_level3_1 | Beginning crossbar traversal for flit 4 from input 1.0 to output 9.0.
4 | network_0/router_level3_1 | Beginning crossbar traversal for flit 6 from input 4.0 to output 12.0.
4 | network_0/router_level3_1 | Beginning crossbar traversal for flit 7 from input 5.0 to output 11.0.
4 | network_0/router_level3_1 | Beginning crossbar traversal for flit 8 from input 6.0 to output 10.0.
4 | network_0/router_level3_1 | Beginning crossbar traversal for flit 9 from input 7.0 to output 14.0.
4 | network_0/router_level3_1 | Completed switch allocation for VC 0 at input 3 (front: 5).
4 | network_0/router_level3_1 |   Scheduling switch connection from input 3.0 to output 9.0.
4 | network_0/router_level3_1 | Updating lookahead routing information for flit 5.
4 | network_0/router_level3_1 | Completed crossbar traversal for flit 3 from input 0.0 to output 15.0.
4 | network_0/router_level3_1 | Buffering flit 3 at output 15.
4 | network_0/router_level3_1 | Completed crossbar traversal for flit 4 from input 1.0 to output 9.0.
4 | network_0/router_level3_1 | Buffering flit 4 at output 9.
4 | network_0/router_level3_1 | Completed crossbar traversal for flit 6 from input 4.0 to output 12.0.
4 | network_0/router_level3_1 | Buffering flit 6 at output 12.
4 | network_0/router_level3_1 | Completed crossbar traversal for flit 7 from input 5.0 to output 11.0.
4 | network_0/router_level3_1 | Buffering flit 7 at output 11.
4 | network_0/router_level3_1 | Completed crossbar traversal for flit 8 from input 6.0 to output 10.0.
4 | network_0/router_level3_1 | Buffering flit 8 at output 10.
4 | network_0/router_level3_1 | Completed crossbar traversal for flit 9 from input 7.0 to output 14.0.
4 | network_0/router_level3_1 | Buffering flit 9 at output 14.
4 | network_0/router_level3_2 | Beginning crossbar traversal for flit 10 from input 1.0 to output 12.0.
4 | network_0/router_level3_2 | Completed crossbar traversal for flit 10 from input 1.0 to output 12.0.
4 | network_0/router_level3_2 | Buffering flit 10 at output 12.
4 | network_0/router_level3_0 | Sending flit 1 to channel at output 15.
4 | network_0/router_level3_1 | Sending flit 4 to channel at output 9.
4 | network_0/router_level3_1 | Sending flit 8 to channel at output 10.
4 | network_0/router_level3_1 | Sending flit 7 to channel at output 11.
4 | network_0/router_level3_1 | Sending flit 6 to channel at output 12.
4 | network_0/router_level3_1 | Sending flit 9 to channel at output 14.
4 | network_0/router_level3_1 | Sending flit 3 to channel at output 15.
4 | network_0/router_level3_2 | Sending flit 10 to channel at output 12.
5 | network_0/network_0_fchan_20487 | Beginning channel traversal for flit 1 with delay 1.
5 | network_0/network_0_fchan_20489 | Beginning channel traversal for flit 4 with delay 1.
5 | network_0/network_0_fchan_20490 | Beginning channel traversal for flit 8 with delay 1.
5 | network_0/network_0_fchan_20491 | Beginning channel traversal for flit 7 with delay 1.
5 | network_0/network_0_fchan_20492 | Beginning channel traversal for flit 6 with delay 1.
5 | network_0/network_0_fchan_20494 | Beginning channel traversal for flit 9 with delay 1.
5 | network_0/network_0_fchan_20495 | Beginning channel traversal for flit 3 with delay 1.
5 | network_0/network_0_fchan_20500 | Beginning channel traversal for flit 10 with delay 1.
5 | network_0/router_level3_0 | Beginning crossbar traversal for flit 2 from input 5.0 to output 15.0.
5 | network_0/router_level3_0 | Completed crossbar traversal for flit 2 from input 5.0 to output 15.0.
5 | network_0/router_level3_0 | Buffering flit 2 at output 15.
5 | network_0/router_level3_1 | Beginning crossbar traversal for flit 5 from input 3.0 to output 9.0.
5 | network_0/router_level3_1 | Completed crossbar traversal for flit 5 from input 3.0 to output 9.0.
5 | network_0/router_level3_1 | Buffering flit 5 at output 9.
5 | network_0/network_0_fchan_20487 | Completed channel traversal for flit 1.
5 | network_0/network_0_fchan_20489 | Completed channel traversal for flit 4.
5 | network_0/network_0_fchan_20490 | Completed channel traversal for flit 8.
5 | network_0/network_0_fchan_20491 | Completed channel traversal for flit 7.
5 | network_0/network_0_fchan_20492 | Completed channel traversal for flit 6.
5 | network_0/network_0_fchan_20494 | Completed channel traversal for flit 9.
5 | network_0/network_0_fchan_20495 | Completed channel traversal for flit 3.
5 | network_0/network_0_fchan_20500 | Completed channel traversal for flit 10.
5 | network_0/router_level3_0 | Sending flit 2 to channel at output 15.
5 | network_0/router_level3_1 | Sending flit 5 to channel at output 9.
6 | network_0/network_0_fchan_20487 | Beginning channel traversal for flit 2 with delay 1.
6 | network_0/network_0_fchan_20489 | Beginning channel traversal for flit 5 with delay 1.
6 | network_0/router_level2_1 | Received flit 4 from channel at input 1.
6 | network_0/router_level2_2 | Received flit 8 from channel at input 1.
6 | network_0/router_level2_3 | Received flit 7 from channel at input 1.
6 | network_0/router_level2_4 | Received flit 6 from channel at input 1.
6 | network_0/router_level2_4 | Received flit 10 from channel at input 2.
6 | network_0/router_level2_6 | Received flit 9 from channel at input 1.
6 | network_0/router_level2_7 | Received flit 1 from channel at input 0.
6 | network_0/router_level2_7 | Received flit 3 from channel at input 1.
6 | network_0/router_level2_1 | Adding flit 4 to VC 0 at input 1 (state: idle, empty).
6 | network_0/router_level2_1 | Using precomputed lookahead routing information for VC 0 at input 1 (front: 4).
6 | network_0/router_level2_1/buf_1/vc_0 | Changing state from idle to vc_alloc.
6 | network_0/router_level2_1 | Beginning VC allocation for VC 0 at input 1 (front: 4).
6 | network_0/router_level2_1 |   Requesting VC 0 at output 8 (in_pri: 0, out_pri: 0).
6 | network_0/router_level2_1 |   Requesting VC 1 at output 8 (in_pri: 0, out_pri: 0).
6 | network_0/router_level2_1 |   Requesting VC 2 at output 8 (in_pri: 0, out_pri: 0).
6 | network_0/router_level2_1 |   Requesting VC 3 at output 8 (in_pri: 0, out_pri: 0).
6 | network_0/router_level2_1/vc_allocator | Input requests = [ 0 -> [ 48@0 49@0 50@0 51@0 ]  4 -> [ 32@0 33@0 34@0 35@0 ]  8 -> [ 32@0 33@0 34@0 35@0 ]  20 -> [ 56@0 57@0 58@0 59@0 ]  24 -> [ 52@0 53@0 54@0 55@0 ]  28 -> [ 60@0 61@0 62@0 63@0 ]  ], output requests = [ 32 -> [ 4@0 8@0 ]  33 -> [ 4@0 8@0 ]  34 -> [ 4@0 8@0 ]  35 -> [ 4@0 8@0 ]  48 -> [ 0@0 ]  49 -> [ 0@0 ]  50 -> [ 0@0 ]  51 -> [ 0@0 ]  52 -> [ 24@0 ]  53 -> [ 24@0 ]  54 -> [ 24@0 ]  55 -> [ 24@0 ]  56 -> [ 20@0 ]  57 -> [ 20@0 ]  58 -> [ 20@0 ]  59 -> [ 20@0 ]  60 -> [ 28@0 ]  61 -> [ 28@0 ]  62 -> [ 28@0 ]  63 -> [ 28@0 ]  ].
6 | network_0/router_level2_1/vc_allocator | Input grants = [ 0 -> 48  4 -> 32  20 -> 56  24 -> 52  28 -> 60  ], output grants = [ 32 -> 4  48 -> 0  52 -> 24  56 -> 20  60 -> 28  ].
6 | network_0/router_level2_1 | Assigning VC 0 at output 8 to VC 0 at input 1.
6 | network_0/router_level2_1 | Completed VC allocation for VC 0 at input 1 (front: 4).
6 | network_0/router_level2_1 |   Acquiring assigned VC 0 at output 8.
6 | network_0/router_level2_1/buf_1/vc_0 | Changing state from vc_alloc to active.
6 | network_0/router_level2_2 | Adding flit 8 to VC 0 at input 1 (state: idle, empty).
6 | network_0/router_level2_2 | Using precomputed lookahead routing information for VC 0 at input 1 (front: 8).
6 | network_0/router_level2_2/buf_1/vc_0 | Changing state from idle to vc_alloc.
6 | network_0/router_level2_2 | Beginning VC allocation for VC 0 at input 1 (front: 8).
6 | network_0/router_level2_2 |   Requesting VC 0 at output 15 (in_pri: 0, out_pri: 0).
6 | network_0/router_level2_2 |   Requesting VC 1 at output 15 (in_pri: 0, out_pri: 0).
6 | network_0/router_level2_2 |   Requesting VC 2 at output 15 (in_pri: 0, out_pri: 0).
6 | network_0/router_level2_2 |   Requesting VC 3 at output 15 (in_pri: 0, out_pri: 0).
6 | network_0/router_level2_2/vc_allocator | Input requests = [ 4 -> [ 60@0 61@0 62@0 63@0 ]  28 -> [ 56@0 57@0 58@0 59@0 ]  ], output requests = [ 56 -> [ 28@0 ]  57 -> [ 28@0 ]  58 -> [ 28@0 ]  59 -> [ 28@0 ]  60 -> [ 4@0 ]  61 -> [ 4@0 ]  62 -> [ 4@0 ]  63 -> [ 4@0 ]  ].
6 | network_0/router_level2_2/vc_allocator | Input grants = [ 4 -> 60  28 -> 56  ], output grants = [ 56 -> 28  60 -> 4  ].
6 | network_0/router_level2_2 | Assigning VC 0 at output 15 to VC 0 at input 1.
6 | network_0/router_level2_2 | Completed VC allocation for VC 0 at input 1 (front: 8).
6 | network_0/router_level2_2 |   Acquiring assigned VC 0 at output 15.
6 | network_0/router_level2_2/buf_1/vc_0 | Changing state from vc_alloc to active.
6 | network_0/router_level2_3 | Adding flit 7 to VC 0 at input 1 (state: idle, empty).
6 | network_0/router_level2_3 | Using precomputed lookahead routing information for VC 0 at input 1 (front: 7).
6 | network_0/router_level2_3/buf_1/vc_0 | Changing state from idle to vc_alloc.
6 | network_0/router_level2_3 | Beginning VC allocation for VC 0 at input 1 (front: 7).
6 | network_0/router_level2_3 |   Requesting VC 0 at output 13 (in_pri: 0, out_pri: 0).
6 | network_0/router_level2_3 |   Requesting VC 1 at output 13 (in_pri: 0, out_pri: 0).
6 | network_0/router_level2_3 |   Requesting VC 2 at output 13 (in_pri: 0, out_pri: 0).
6 | network_0/router_level2_3 |   Requesting VC 3 at output 13 (in_pri: 0, out_pri: 0).
6 | network_0/router_level2_3/vc_allocator | Input requests = [ 4 -> [ 52@0 53@0 54@0 55@0 ]  20 -> [ 52@0 53@0 54@0 55@0 ]  24 -> [ 48@0 49@0 50@0 51@0 ]  ], output requests = [ 48 -> [ 24@0 ]  49 -> [ 24@0 ]  50 -> [ 24@0 ]  51 -> [ 24@0 ]  52 -> [ 4@0 20@0 ]  53 -> [ 4@0 20@0 ]  54 -> [ 4@0 20@0 ]  55 -> [ 4@0 20@0 ]  ].
6 | network_0/router_level2_3/vc_allocator | Input grants = [ 4 -> 52  24 -> 48  ], output grants = [ 48 -> 24  52 -> 4  ].
6 | network_0/router_level2_3 | Assigning VC 0 at output 13 to VC 0 at input 1.
6 | network_0/router_level2_3 | Completed VC allocation for VC 0 at input 1 (front: 7).
6 | network_0/router_level2_3 |   Acquiring assigned VC 0 at output 13.
6 | network_0/router_level2_3/buf_1/vc_0 | Changing state from vc_alloc to active.
6 | network_0/router_level2_4 | Adding flit 6 to VC 0 at input 1 (state: idle, empty).
6 | network_0/router_level2_4 | Using precomputed lookahead routing information for VC 0 at input 1 (front: 6).
6 | network_0/router_level2_4/buf_1/vc_0 | Changing state from idle to vc_alloc.
6 | network_0/router_level2_4 | Adding flit 10 to VC 0 at input 2 (state: idle, empty).
6 | network_0/router_level2_4 | Using precomputed lookahead routing information for VC 0 at input 2 (front: 10).
6 | network_0/router_level2_4/buf_2/vc_0 | Changing state from idle to vc_alloc.
6 | network_0/router_level2_4 | Beginning VC allocation for VC 0 at input 1 (front: 6).
6 | network_0/router_level2_4 |   Requesting VC 0 at output 8 (in_pri: 0, out_pri: 0).
6 | network_0/router_level2_4 |   Requesting VC 1 at output 8 (in_pri: 0, out_pri: 0).
6 | network_0/router_level2_4 |   Requesting VC 2 at output 8 (in_pri: 0, out_pri: 0).
6 | network_0/router_level2_4 |   Requesting VC 3 at output 8 (in_pri: 0, out_pri: 0).
6 | network_0/router_level2_4 | Beginning VC allocation for VC 0 at input 2 (front: 10).
6 | network_0/router_level2_4 |   Requesting VC 0 at output 13 (in_pri: 0, out_pri: 0).
6 | network_0/router_level2_4 |   Requesting VC 1 at output 13 (in_pri: 0, out_pri: 0).
6 | network_0/router_level2_4 |   Requesting VC 2 at output 13 (in_pri: 0, out_pri: 0).
6 | network_0/router_level2_4 |   Requesting VC 3 at output 13 (in_pri: 0, out_pri: 0).
6 | network_0/router_level2_4/vc_allocator | Input requests = [ 4 -> [ 32@0 33@0 34@0 35@0 ]  8 -> [ 52@0 53@0 54@0 55@0 ]  12 -> [ 44@0 45@0 46@0 47@0 ]  16 -> [ 44@0 45@0 46@0 47@0 ]  24 -> [ 52@0 53@0 54@0 55@0 ]  28 -> [ 60@0 61@0 62@0 63@0 ]  ], output requests = [ 32 -> [ 4@0 ]  33 -> [ 4@0 ]  34 -> [ 4@0 ]  35 -> [ 4@0 ]  44 -> [ 12@0 16@0 ]  45 -> [ 12@0 16@0 ]  46 -> [ 12@0 16@0 ]  47 -> [ 12@0 16@0 ]  52 -> [ 8@0 24@0 ]  53 -> [ 8@0 24@0 ]  54 -> [ 8@0 24@0 ]  55 -> [ 8@0 24@0 ]  60 -> [ 28@0 ]  61 -> [ 28@0 ]  62 -> [ 28@0 ]  63 -> [ 28@0 ]  ].
6 | network_0/router_level2_4/vc_allocator | Input grants = [ 4 -> 32  8 -> 52  12 -> 44  28 -> 60  ], output grants = [ 32 -> 4  44 -> 12  52 -> 8  60 -> 28  ].
6 | network_0/router_level2_4 | Assigning VC 0 at output 8 to VC 0 at input 1.
6 | network_0/router_level2_4 | Assigning VC 0 at output 13 to VC 0 at input 2.
6 | network_0/router_level2_4 | Completed VC allocation for VC 0 at input 1 (front: 6).
6 | network_0/router_level2_4 |   Acquiring assigned VC 0 at output 8.
6 | network_0/router_level2_4/buf_1/vc_0 | Changing state from vc_alloc to active.
6 | network_0/router_level2_4 | Completed VC allocation for VC 0 at input 2 (front: 10).
6 | network_0/router_level2_4 |   Acquiring assigned VC 0 at output 13.
6 | network_0/router_level2_4/buf_2/vc_0 | Changing state from vc_alloc to active.
6 | network_0/router_level2_6 | Adding flit 9 to VC 0 at input 1 (state: idle, empty).
6 | network_0/router_level2_6 | Using precomputed lookahead routing information for VC 0 at input 1 (front: 9).
6 | network_0/router_level2_6/buf_1/vc_0 | Changing state from idle to vc_alloc.
6 | network_0/router_level2_6 | Beginning VC allocation for VC 0 at input 1 (front: 9).
6 | network_0/router_level2_6 |   Requesting VC 0 at output 11 (in_pri: 0, out_pri: 0).
6 | network_0/router_level2_6 |   Requesting VC 1 at output 11 (in_pri: 0, out_pri: 0).
6 | network_0/router_level2_6 |   Requesting VC 2 at output 11 (in_pri: 0, out_pri: 0).
6 | network_0/router_level2_6 |   Requesting VC 3 at output 11 (in_pri: 0, out_pri: 0).
6 | network_0/router_level2_6/vc_allocator | Input requests = [ 4 -> [ 44@0 45@0 46@0 47@0 ]  12 -> [ 60@0 61@0 62@0 63@0 ]  16 -> [ 48@0 49@0 50@0 51@0 ]  ], output requests = [ 44 -> [ 4@0 ]  45 -> [ 4@0 ]  46 -> [ 4@0 ]  47 -> [ 4@0 ]  48 -> [ 16@0 ]  49 -> [ 16@0 ]  50 -> [ 16@0 ]  51 -> [ 16@0 ]  60 -> [ 12@0 ]  61 -> [ 12@0 ]  62 -> [ 12@0 ]  63 -> [ 12@0 ]  ].
6 | network_0/router_level2_6/vc_allocator | Input grants = [ 4 -> 44  12 -> 60  16 -> 48  ], output grants = [ 44 -> 4  48 -> 16  60 -> 12  ].
6 | network_0/router_level2_6 | Assigning VC 0 at output 11 to VC 0 at input 1.
6 | network_0/router_level2_6 | Completed VC allocation for VC 0 at input 1 (front: 9).
6 | network_0/router_level2_6 |   Acquiring assigned VC 0 at output 11.
6 | network_0/router_level2_6/buf_1/vc_0 | Changing state from vc_alloc to active.
6 | network_0/router_level2_7 | Adding flit 1 to VC 0 at input 0 (state: idle, empty).
6 | network_0/router_level2_7 | Using precomputed lookahead routing information for VC 0 at input 0 (front: 1).
6 | network_0/router_level2_7/buf_0/vc_0 | Changing state from idle to vc_alloc.
6 | network_0/router_level2_7 | Adding flit 3 to VC 0 at input 1 (state: idle, empty).
6 | network_0/router_level2_7 | Using precomputed lookahead routing information for VC 0 at input 1 (front: 3).
6 | network_0/router_level2_7/buf_1/vc_0 | Changing state from idle to vc_alloc.
6 | network_0/router_level2_7 | Beginning VC allocation for VC 0 at input 0 (front: 1).
6 | network_0/router_level2_7 |   Requesting VC 0 at output 14 (in_pri: 0, out_pri: 0).
6 | network_0/router_level2_7 |   Requesting VC 1 at output 14 (in_pri: 0, out_pri: 0).
6 | network_0/router_level2_7 |   Requesting VC 2 at output 14 (in_pri: 0, out_pri: 0).
6 | network_0/router_level2_7 |   Requesting VC 3 at output 14 (in_pri: 0, out_pri: 0).
6 | network_0/router_level2_7 | Beginning VC allocation for VC 0 at input 1 (front: 3).
6 | network_0/router_level2_7 |   Requesting VC 0 at output 8 (in_pri: 0, out_pri: 0).
6 | network_0/router_level2_7 |   Requesting VC 1 at output 8 (in_pri: 0, out_pri: 0).
6 | network_0/router_level2_7 |   Requesting VC 2 at output 8 (in_pri: 0, out_pri: 0).
6 | network_0/router_level2_7 |   Requesting VC 3 at output 8 (in_pri: 0, out_pri: 0).
6 | network_0/router_level2_7/vc_allocator | Input requests = [ 0 -> [ 56@0 57@0 58@0 59@0 ]  4 -> [ 32@0 33@0 34@0 35@0 ]  8 -> [ 48@0 49@0 50@0 51@0 ]  12 -> [ 44@0 45@0 46@0 47@0 ]  20 -> [ 44@0 45@0 46@0 47@0 ]  ], output requests = [ 32 -> [ 4@0 ]  33 -> [ 4@0 ]  34 -> [ 4@0 ]  35 -> [ 4@0 ]  44 -> [ 12@0 20@0 ]  45 -> [ 12@0 20@0 ]  46 -> [ 12@0 20@0 ]  47 -> [ 12@0 20@0 ]  48 -> [ 8@0 ]  49 -> [ 8@0 ]  50 -> [ 8@0 ]  51 -> [ 8@0 ]  56 -> [ 0@0 ]  57 -> [ 0@0 ]  58 -> [ 0@0 ]  59 -> [ 0@0 ]  ].
6 | network_0/router_level2_7/vc_allocator | Input grants = [ 0 -> 56  4 -> 32  8 -> 48  12 -> 44  ], output grants = [ 32 -> 4  44 -> 12  48 -> 8  56 -> 0  ].
6 | network_0/router_level2_7 | Assigning VC 0 at output 14 to VC 0 at input 0.
6 | network_0/router_level2_7 | Assigning VC 0 at output 8 to VC 0 at input 1.
6 | network_0/router_level2_7 | Completed VC allocation for VC 0 at input 0 (front: 1).
6 | network_0/router_level2_7 |   Acquiring assigned VC 0 at output 14.
6 | network_0/router_level2_7/buf_0/vc_0 | Changing state from vc_alloc to active.
6 | network_0/router_level2_7 | Completed VC allocation for VC 0 at input 1 (front: 3).
6 | network_0/router_level2_7 |   Acquiring assigned VC 0 at output 8.
6 | network_0/router_level2_7/buf_1/vc_0 | Changing state from vc_alloc to active.
6 | network_0/network_0_fchan_20487 | Completed channel traversal for flit 2.
6 | network_0/network_0_fchan_20489 | Completed channel traversal for flit 5.
7 | network_0/router_level2_1 | Received flit 5 from channel at input 1.
7 | network_0/router_level2_7 | Received flit 2 from channel at input 0.
7 | network_0/router_level2_1 | Adding flit 5 to VC 1 at input 1 (state: idle, empty).
7 | network_0/router_level2_1 | Using precomputed lookahead routing information for VC 1 at input 1 (front: 5).
7 | network_0/router_level2_1/buf_1/vc_1 | Changing state from idle to vc_alloc.
7 | network_0/router_level2_1 | Beginning VC allocation for VC 1 at input 1 (front: 5).
7 | network_0/router_level2_1 |   VC 0 at output 13 is in use by VC 0 at input 6 (front flit: 33).
7 | network_0/router_level2_1 |   Requesting VC 1 at output 13 (in_pri: 0, out_pri: 0).
7 | network_0/router_level2_1 |   Requesting VC 2 at output 13 (in_pri: 0, out_pri: 0).
7 | network_0/router_level2_1 |   Requesting VC 3 at output 13 (in_pri: 0, out_pri: 0).
7 | network_0/router_level2_1/vc_allocator | Input requests = [ 1 -> [ 57@0 58@0 59@0 ]  5 -> [ 53@0 54@0 55@0 ]  8 -> [ 33@0 34@0 35@0 ]  16 -> [ 49@0 50@0 51@0 ]  21 -> [ 36@0 37@0 38@0 39@0 ]  ], output requests = [ 33 -> [ 8@0 ]  34 -> [ 8@0 ]  35 -> [ 8@0 ]  36 -> [ 21@0 ]  37 -> [ 21@0 ]  38 -> [ 21@0 ]  39 -> [ 21@0 ]  49 -> [ 16@0 ]  50 -> [ 16@0 ]  51 -> [ 16@0 ]  53 -> [ 5@0 ]  54 -> [ 5@0 ]  55 -> [ 5@0 ]  57 -> [ 1@0 ]  58 -> [ 1@0 ]  59 -> [ 1@0 ]  ].
7 | network_0/router_level2_1/vc_allocator | Input grants = [ 1 -> 57  5 -> 53  8 -> 33  16 -> 49  21 -> 36  ], output grants = [ 33 -> 8  36 -> 21  49 -> 16  53 -> 5  57 -> 1  ].
7 | network_0/router_level2_1 | Assigning VC 1 at output 13 to VC 1 at input 1.
7 | network_0/router_level2_1 | Beginning switch allocation for VC 0 at input 1 (front: 4).
7 | network_0/router_level2_1 |   Requesting output 8.0 (non-spec, pri: 0).
7 | network_0/router_level2_1/sw_allocator | Input requests = [ 0 -> [ 12@0 ]  1 -> [ 8@0 ]  5 -> [ 14@0 ]  6 -> [ 13@0 ]  7 -> [ 15@0 ]  ], output requests = [ 8 -> [ 1@0 ]  12 -> [ 0@0 ]  13 -> [ 6@0 ]  14 -> [ 5@0 ]  15 -> [ 7@0 ]  ].
7 | network_0/router_level2_1/sw_allocator | Input grants = [ 0 -> 12  1 -> 8  5 -> 14  6 -> 13  7 -> 15  ], output grants = [ 8 -> 1  12 -> 0  13 -> 6  14 -> 5  15 -> 7  ].
7 | network_0/router_level2_1 | Assigning output 8.0 to VC 0 at input 1.0.
7 | network_0/router_level2_1 | Completed VC allocation for VC 1 at input 1 (front: 5).
7 | network_0/router_level2_1 |   Acquiring assigned VC 1 at output 13.
7 | network_0/router_level2_1/buf_1/vc_1 | Changing state from vc_alloc to active.
7 | network_0/router_level2_1 | Completed switch allocation for VC 0 at input 1 (front: 4).
7 | network_0/router_level2_1 |   Scheduling switch connection from input 1.0 to output 8.0.
7 | network_0/router_level2_1 | Updating lookahead routing information for flit 4.
7 | network_0/router_level2_2 | Beginning switch allocation for VC 0 at input 1 (front: 8).
7 | network_0/router_level2_2 |   Requesting output 15.0 (non-spec, pri: 0).
7 | network_0/router_level2_2/sw_allocator | Input requests = [ 1 -> [ 15@0 ]  7 -> [ 14@0 ]  ], output requests = [ 14 -> [ 7@0 ]  15 -> [ 1@0 ]  ].
7 | network_0/router_level2_2/sw_allocator | Input grants = [ 1 -> 15  7 -> 14  ], output grants = [ 14 -> 7  15 -> 1  ].
7 | network_0/router_level2_2 | Assigning output 15.0 to VC 0 at input 1.0.
7 | network_0/router_level2_2 | Completed switch allocation for VC 0 at input 1 (front: 8).
7 | network_0/router_level2_2 |   Scheduling switch connection from input 1.0 to output 15.0.
7 | network_0/router_level2_2 | Updating lookahead routing information for flit 8.
7 | network_0/router_level2_3 | Beginning switch allocation for VC 0 at input 1 (front: 7).
7 | network_0/router_level2_3 |   Requesting output 13.0 (non-spec, pri: 0).
7 | network_0/router_level2_3/sw_allocator | Input requests = [ 1 -> [ 13@0 ]  6 -> [ 12@0 ]  ], output requests = [ 12 -> [ 6@0 ]  13 -> [ 1@0 ]  ].
7 | network_0/router_level2_3/sw_allocator | Input grants = [ 1 -> 13  6 -> 12  ], output grants = [ 12 -> 6  13 -> 1  ].
7 | network_0/router_level2_3 | Assigning output 13.0 to VC 0 at input 1.0.
7 | network_0/router_level2_3 | Completed switch allocation for VC 0 at input 1 (front: 7).
7 | network_0/router_level2_3 |   Scheduling switch connection from input 1.0 to output 13.0.
7 | network_0/router_level2_3 | Updating lookahead routing information for flit 7.
7 | network_0/router_level2_4 | Beginning switch allocation for VC 0 at input 1 (front: 6).
7 | network_0/router_level2_4 |   Requesting output 8.0 (non-spec, pri: 0).
7 | network_0/router_level2_4 | Beginning switch allocation for VC 0 at input 2 (front: 10).
7 | network_0/router_level2_4 |   Requesting output 13.0 (non-spec, pri: 0).
7 | network_0/router_level2_4/sw_allocator | Input requests = [ 1 -> [ 8@0 ]  2 -> [ 13@0 ]  3 -> [ 11@0 ]  7 -> [ 15@0 ]  ], output requests = [ 8 -> [ 1@0 ]  11 -> [ 3@0 ]  13 -> [ 2@0 ]  15 -> [ 7@0 ]  ].
7 | network_0/router_level2_4/sw_allocator | Input grants = [ 1 -> 8  2 -> 13  3 -> 11  7 -> 15  ], output grants = [ 8 -> 1  11 -> 3  13 -> 2  15 -> 7  ].
7 | network_0/router_level2_4 | Assigning output 8.0 to VC 0 at input 1.0.
7 | network_0/router_level2_4 | Assigning output 13.0 to VC 0 at input 2.0.
7 | network_0/router_level2_4 | Completed switch allocation for VC 0 at input 1 (front: 6).
7 | network_0/router_level2_4 |   Scheduling switch connection from input 1.0 to output 8.0.
7 | network_0/router_level2_4 | Updating lookahead routing information for flit 6.
7 | network_0/router_level2_4 | Completed switch allocation for VC 0 at input 2 (front: 10).
7 | network_0/router_level2_4 |   Scheduling switch connection from input 2.0 to output 13.0.
7 | network_0/router_level2_4 | Updating lookahead routing information for flit 10.
7 | network_0/router_level2_6 | Beginning switch allocation for VC 0 at input 1 (front: 9).
7 | network_0/router_level2_6 |   Requesting output 11.0 (non-spec, pri: 0).
7 | network_0/router_level2_6/sw_allocator | Input requests = [ 1 -> [ 11@0 ]  3 -> [ 15@0 ]  4 -> [ 12@0 ]  ], output requests = [ 11 -> [ 1@0 ]  12 -> [ 4@0 ]  15 -> [ 3@0 ]  ].
7 | network_0/router_level2_6/sw_allocator | Input grants = [ 1 -> 11  3 -> 15  4 -> 12  ], output grants = [ 11 -> 1  12 -> 4  15 -> 3  ].
7 | network_0/router_level2_6 | Assigning output 11.0 to VC 0 at input 1.0.
7 | network_0/router_level2_6 | Completed switch allocation for VC 0 at input 1 (front: 9).
7 | network_0/router_level2_6 |   Scheduling switch connection from input 1.0 to output 11.0.
7 | network_0/router_level2_6 | Updating lookahead routing information for flit 9.
7 | network_0/router_level2_7 | Adding flit 2 to VC 1 at input 0 (state: idle, empty).
7 | network_0/router_level2_7 | Using precomputed lookahead routing information for VC 1 at input 0 (front: 2).
7 | network_0/router_level2_7/buf_0/vc_1 | Changing state from idle to vc_alloc.
7 | network_0/router_level2_7 | Beginning VC allocation for VC 1 at input 0 (front: 2).
7 | network_0/router_level2_7 |   Requesting VC 0 at output 15 (in_pri: 0, out_pri: 0).
7 | network_0/router_level2_7 |   Requesting VC 1 at output 15 (in_pri: 0, out_pri: 0).
7 | network_0/router_level2_7 |   Requesting VC 2 at output 15 (in_pri: 0, out_pri: 0).
7 | network_0/router_level2_7 |   Requesting VC 3 at output 15 (in_pri: 0, out_pri: 0).
7 | network_0/router_level2_7/vc_allocator | Input requests = [ 1 -> [ 60@0 61@0 62@0 63@0 ]  5 -> [ 52@0 53@0 54@0 55@0 ]  13 -> [ 49@0 50@0 51@0 ]  20 -> [ 45@0 46@0 47@0 ]  21 -> [ 40@0 41@0 42@0 43@0 ]  24 -> [ 40@0 41@0 42@0 43@0 ]  28 -> [ 49@0 50@0 51@0 ]  ], output requests = [ 40 -> [ 21@0 24@0 ]  41 -> [ 21@0 24@0 ]  42 -> [ 21@0 24@0 ]  43 -> [ 21@0 24@0 ]  45 -> [ 20@0 ]  46 -> [ 20@0 ]  47 -> [ 20@0 ]  49 -> [ 13@0 28@0 ]  50 -> [ 13@0 28@0 ]  51 -> [ 13@0 28@0 ]  52 -> [ 5@0 ]  53 -> [ 5@0 ]  54 -> [ 5@0 ]  55 -> [ 5@0 ]  60 -> [ 1@0 ]  61 -> [ 1@0 ]  62 -> [ 1@0 ]  63 -> [ 1@0 ]  ].
7 | network_0/router_level2_7/vc_allocator | Input grants = [ 1 -> 60  5 -> 52  13 -> 49  20 -> 45  21 -> 40  ], output grants = [ 40 -> 21  45 -> 20  49 -> 13  52 -> 5  60 -> 1  ].
7 | network_0/router_level2_7 | Assigning VC 0 at output 15 to VC 1 at input 0.
7 | network_0/router_level2_7 | Beginning switch allocation for VC 0 at input 0 (front: 1).
7 | network_0/router_level2_7 |   Requesting output 14.0 (non-spec, pri: 0).
7 | network_0/router_level2_7 | Beginning switch allocation for VC 0 at input 1 (front: 3).
7 | network_0/router_level2_7 |   Requesting output 8.0 (non-spec, pri: 0).
7 | network_0/router_level2_7/sw_allocator | Input requests = [ 0 -> [ 14@0 ]  1 -> [ 8@0 ]  2 -> [ 12@0 ]  3 -> [ 11@0 ]  ], output requests = [ 8 -> [ 1@0 ]  11 -> [ 3@0 ]  12 -> [ 2@0 ]  14 -> [ 0@0 ]  ].
7 | network_0/router_level2_7/sw_allocator | Input grants = [ 0 -> 14  1 -> 8  2 -> 12  3 -> 11  ], output grants = [ 8 -> 1  11 -> 3  12 -> 2  14 -> 0  ].
7 | network_0/router_level2_7 | Assigning output 14.0 to VC 0 at input 0.0.
7 | network_0/router_level2_7 | Assigning output 8.0 to VC 0 at input 1.0.
7 | network_0/router_level2_7 | Completed VC allocation for VC 1 at input 0 (front: 2).
7 | network_0/router_level2_7 |   Acquiring assigned VC 0 at output 15.
7 | network_0/router_level2_7/buf_0/vc_1 | Changing state from vc_alloc to active.
7 | network_0/router_level2_7 | Completed switch allocation for VC 0 at input 0 (front: 1).
7 | network_0/router_level2_7 |   Scheduling switch connection from input 0.0 to output 14.0.
7 | network_0/router_level2_7 | Updating lookahead routing information for flit 1.
7 | network_0/router_level2_7 | Completed switch allocation for VC 0 at input 1 (front: 3).
7 | network_0/router_level2_7 |   Scheduling switch connection from input 1.0 to output 8.0.
7 | network_0/router_level2_7 | Updating lookahead routing information for flit 3.
8 | network_0/router_level2_1 | Beginning switch allocation for VC 1 at input 1 (front: 5).
8 | network_0/router_level2_1 |   Requesting output 13.0 (non-spec, pri: 0).
8 | network_0/router_level2_1/sw_allocator | Input requests = [ 0 -> [ 14@0 ]  1 -> [ 13@0 ]  2 -> [ 8@0 ]  4 -> [ 12@0 ]  5 -> [ 9@0 ]  ], output requests = [ 8 -> [ 2@0 ]  9 -> [ 5@0 ]  12 -> [ 4@0 ]  13 -> [ 1@0 ]  14 -> [ 0@0 ]  ].
8 | network_0/router_level2_1/sw_allocator | Input grants = [ 0 -> 14  1 -> 13  2 -> 8  4 -> 12  5 -> 9  ], output grants = [ 8 -> 2  9 -> 5  12 -> 4  13 -> 1  14 -> 0  ].
8 | network_0/router_level2_1 | Assigning output 13.0 to VC 1 at input 1.0.
8 | network_0/router_level2_1 | Beginning crossbar traversal for flit 4 from input 1.0 to output 8.0.
8 | network_0/router_level2_1 | Completed switch allocation for VC 1 at input 1 (front: 5).
8 | network_0/router_level2_1 |   Scheduling switch connection from input 1.0 to output 13.0.
8 | network_0/router_level2_1 | Updating lookahead routing information for flit 5.
8 | network_0/router_level2_1 | Completed crossbar traversal for flit 4 from input 1.0 to output 8.0.
8 | network_0/router_level2_1 | Buffering flit 4 at output 8.
8 | network_0/router_level2_2 | Beginning crossbar traversal for flit 8 from input 1.0 to output 15.0.
8 | network_0/router_level2_2 | Completed crossbar traversal for flit 8 from input 1.0 to output 15.0.
8 | network_0/router_level2_2 | Buffering flit 8 at output 15.
8 | network_0/router_level2_3 | Beginning crossbar traversal for flit 7 from input 1.0 to output 13.0.
8 | network_0/router_level2_3 | Completed crossbar traversal for flit 7 from input 1.0 to output 13.0.
8 | network_0/router_level2_3 | Buffering flit 7 at output 13.
8 | network_0/router_level2_4 | Beginning crossbar traversal for flit 6 from input 1.0 to output 8.0.
8 | network_0/router_level2_4 | Beginning crossbar traversal for flit 10 from input 2.0 to output 13.0.
8 | network_0/router_level2_4 | Completed crossbar traversal for flit 6 from input 1.0 to output 8.0.
8 | network_0/router_level2_4 | Buffering flit 6 at output 8.
8 | network_0/router_level2_4 | Completed crossbar traversal for flit 10 from input 2.0 to output 13.0.
8 | network_0/router_level2_4 | Buffering flit 10 at output 13.
8 | network_0/router_level2_6 | Beginning crossbar traversal for flit 9 from input 1.0 to output 11.0.
8 | network_0/router_level2_6 | Completed crossbar traversal for flit 9 from input 1.0 to output 11.0.
8 | network_0/router_level2_6 | Buffering flit 9 at output 11.
8 | network_0/router_level2_7 | Beginning switch allocation for VC 1 at input 0 (front: 2).
8 | network_0/router_level2_7 |   Requesting output 15.0 (non-spec, pri: 0).
8 | network_0/router_level2_7/sw_allocator | Input requests = [ 0 -> [ 15@0 ]  1 -> [ 13@0 ]  3 -> [ 12@0 ]  5 -> [ 10@0 11@0 ]  ], output requests = [ 10 -> [ 5@0 ]  11 -> [ 5@0 ]  12 -> [ 3@0 ]  13 -> [ 1@0 ]  15 -> [ 0@0 ]  ].
8 | network_0/router_level2_7/sw_allocator | Input grants = [ 0 -> 15  1 -> 13  3 -> 12  5 -> 10  ], output grants = [ 10 -> 5  12 -> 3  13 -> 1  15 -> 0  ].
8 | network_0/router_level2_7 | Assigning output 15.0 to VC 1 at input 0.0.
8 | network_0/router_level2_7 | Beginning crossbar traversal for flit 1 from input 0.0 to output 14.0.
8 | network_0/router_level2_7 | Beginning crossbar traversal for flit 3 from input 1.0 to output 8.0.
8 | network_0/router_level2_7 | Completed switch allocation for VC 1 at input 0 (front: 2).
8 | network_0/router_level2_7 |   Scheduling switch connection from input 0.0 to output 15.0.
8 | network_0/router_level2_7 | Updating lookahead routing information for flit 2.
8 | network_0/router_level2_7 | Completed crossbar traversal for flit 1 from input 0.0 to output 14.0.
8 | network_0/router_level2_7 | Buffering flit 1 at output 14.
8 | network_0/router_level2_7 | Completed crossbar traversal for flit 3 from input 1.0 to output 8.0.
8 | network_0/router_level2_7 | Buffering flit 3 at output 8.
8 | network_0/router_level2_1 | Sending flit 4 to channel at output 8.
8 | network_0/router_level2_2 | Sending flit 8 to channel at output 15.
8 | network_0/router_level2_3 | Sending flit 7 to channel at output 13.
8 | network_0/router_level2_4 | Sending flit 6 to channel at output 8.
8 | network_0/router_level2_4 | Sending flit 10 to channel at output 13.
8 | network_0/router_level2_6 | Sending flit 9 to channel at output 11.
8 | network_0/router_level2_7 | Sending flit 3 to channel at output 8.
8 | network_0/router_level2_7 | Sending flit 1 to channel at output 14.
9 | network_0/network_0_fchan_12296 | Beginning channel traversal for flit 4 with delay 1.
9 | network_0/network_0_fchan_12311 | Beginning channel traversal for flit 8 with delay 1.
9 | network_0/network_0_fchan_12317 | Beginning channel traversal for flit 7 with delay 1.
9 | network_0/network_0_fchan_12320 | Beginning channel traversal for flit 6 with delay 1.
9 | network_0/network_0_fchan_12325 | Beginning channel traversal for flit 10 with delay 1.
9 | network_0/network_0_fchan_12339 | Beginning channel traversal for flit 9 with delay 1.
9 | network_0/network_0_fchan_12344 | Beginning channel traversal for flit 3 with delay 1.
9 | network_0/network_0_fchan_12350 | Beginning channel traversal for flit 1 with delay 1.
9 | network_0/router_level2_1 | Beginning crossbar traversal for flit 5 from input 1.0 to output 13.0.
9 | network_0/router_level2_1 | Completed crossbar traversal for flit 5 from input 1.0 to output 13.0.
9 | network_0/router_level2_1 | Buffering flit 5 at output 13.
9 | network_0/router_level2_7 | Beginning crossbar traversal for flit 2 from input 0.0 to output 15.0.
9 | network_0/router_level2_7 | Completed crossbar traversal for flit 2 from input 0.0 to output 15.0.
9 | network_0/router_level2_7 | Buffering flit 2 at output 15.
9 | network_0/network_0_fchan_12296 | Completed channel traversal for flit 4.
9 | network_0/network_0_fchan_12311 | Completed channel traversal for flit 8.
9 | network_0/network_0_fchan_12317 | Completed channel traversal for flit 7.
9 | network_0/network_0_fchan_12320 | Completed channel traversal for flit 6.
9 | network_0/network_0_fchan_12325 | Completed channel traversal for flit 10.
9 | network_0/network_0_fchan_12339 | Completed channel traversal for flit 9.
9 | network_0/network_0_fchan_12344 | Completed channel traversal for flit 3.
9 | network_0/network_0_fchan_12350 | Completed channel traversal for flit 1.
9 | network_0/router_level2_1 | Sending flit 5 to channel at output 13.
9 | network_0/router_level2_7 | Sending flit 2 to channel at output 15.
10 | network_0/network_0_fchan_12301 | Beginning channel traversal for flit 5 with delay 1.
10 | network_0/network_0_fchan_12351 | Beginning channel traversal for flit 2 with delay 1.
10 | network_0/router_level1_1 | Received flit 4 from channel at input 0.
10 | network_0/router_level1_4 | Received flit 6 from channel at input 0.
10 | network_0/router_level1_7 | Received flit 3 from channel at input 0.
10 | network_0/router_level1_30 | Received flit 9 from channel at input 0.
10 | network_0/router_level1_43 | Received flit 7 from channel at input 0.
10 | network_0/router_level1_44 | Received flit 10 from channel at input 0.
10 | network_0/router_level1_55 | Received flit 1 from channel at input 0.
10 | network_0/router_level1_58 | Received flit 8 from channel at input 0.
10 | network_0/router_level1_1 | Adding flit 4 to VC 0 at input 0 (state: idle, empty).
10 | network_0/router_level1_1 | Using precomputed lookahead routing information for VC 0 at input 0 (front: 4).
10 | network_0/router_level1_1/buf_0/vc_0 | Changing state from idle to vc_alloc.
10 | network_0/router_level1_1 | Beginning VC allocation for VC 0 at input 0 (front: 4).
10 | network_0/router_level1_1 |   Requesting VC 0 at output 11 (in_pri: 0, out_pri: 0).
10 | network_0/router_level1_1 |   Requesting VC 1 at output 11 (in_pri: 0, out_pri: 0).
10 | network_0/router_level1_1 |   Requesting VC 2 at output 11 (in_pri: 0, out_pri: 0).
10 | network_0/router_level1_1 |   Requesting VC 3 at output 11 (in_pri: 0, out_pri: 0).
10 | network_0/router_level1_1/vc_allocator | Input requests = [ 0 -> [ 44@0 45@0 46@0 47@0 ]  8 -> [ 40@0 41@0 42@0 43@0 ]  28 -> [ 40@0 41@0 42@0 43@0 ]  ], output requests = [ 40 -> [ 8@0 28@0 ]  41 -> [ 8@0 28@0 ]  42 -> [ 8@0 28@0 ]  43 -> [ 8@0 28@0 ]  44 -> [ 0@0 ]  45 -> [ 0@0 ]  46 -> [ 0@0 ]  47 -> [ 0@0 ]  ].
10 | network_0/router_level1_1/vc_allocator | Input grants = [ 0 -> 44  8 -> 40  ], output grants = [ 40 -> 8  44 -> 0  ].
10 | network_0/router_level1_1 | Assigning VC 0 at output 11 to VC 0 at input 0.
10 | network_0/router_level1_1 | Completed VC allocation for VC 0 at input 0 (front: 4).
10 | network_0/router_level1_1 |   Acquiring assigned VC 0 at output 11.
10 | network_0/router_level1_1/buf_0/vc_0 | Changing state from vc_alloc to active.
10 | network_0/router_level1_4 | Adding flit 6 to VC 0 at input 0 (state: idle, empty).
10 | network_0/router_level1_4 | Using precomputed lookahead routing information for VC 0 at input 0 (front: 6).
10 | network_0/router_level1_4/buf_0/vc_0 | Changing state from idle to vc_alloc.
10 | network_0/router_level1_4 | Beginning VC allocation for VC 0 at input 0 (front: 6).
10 | network_0/router_level1_4 |   Requesting VC 0 at output 14 (in_pri: 0, out_pri: 0).
10 | network_0/router_level1_4 |   Requesting VC 1 at output 14 (in_pri: 0, out_pri: 0).
10 | network_0/router_level1_4 |   Requesting VC 2 at output 14 (in_pri: 0, out_pri: 0).
10 | network_0/router_level1_4 |   Requesting VC 3 at output 14 (in_pri: 0, out_pri: 0).
10 | network_0/router_level1_4/vc_allocator | Input requests = [ 0 -> [ 56@0 57@0 58@0 59@0 ]  12 -> [ 60@0 61@0 62@0 63@0 ]  16 -> [ 40@0 41@0 42@0 43@0 ]  28 -> [ 32@0 33@0 34@0 35@0 ]  ], output requests = [ 32 -> [ 28@0 ]  33 -> [ 28@0 ]  34 -> [ 28@0 ]  35 -> [ 28@0 ]  40 -> [ 16@0 ]  41 -> [ 16@0 ]  42 -> [ 16@0 ]  43 -> [ 16@0 ]  56 -> [ 0@0 ]  57 -> [ 0@0 ]  58 -> [ 0@0 ]  59 -> [ 0@0 ]  60 -> [ 12@0 ]  61 -> [ 12@0 ]  62 -> [ 12@0 ]  63 -> [ 12@0 ]  ].
10 | network_0/router_level1_4/vc_allocator | Input grants = [ 0 -> 56  12 -> 60  16 -> 40  28 -> 32  ], output grants = [ 32 -> 28  40 -> 16  56 -> 0  60 -> 12  ].
10 | network_0/router_level1_4 | Assigning VC 0 at output 14 to VC 0 at input 0.
10 | network_0/router_level1_4 | Completed VC allocation for VC 0 at input 0 (front: 6).
10 | network_0/router_level1_4 |   Acquiring assigned VC 0 at output 14.
10 | network_0/router_level1_4/buf_0/vc_0 | Changing state from vc_alloc to active.
10 | network_0/router_level1_7 | Adding flit 3 to VC 0 at input 0 (state: idle, empty).
10 | network_0/router_level1_7 | Using precomputed lookahead routing information for VC 0 at input 0 (front: 3).
10 | network_0/router_level1_7/buf_0/vc_0 | Changing state from idle to vc_alloc.
10 | network_0/router_level1_7 | Beginning VC allocation for VC 0 at input 0 (front: 3).
10 | network_0/router_level1_7 |   Requesting VC 0 at output 9 (in_pri: 0, out_pri: 0).
10 | network_0/router_level1_7 |   Requesting VC 1 at output 9 (in_pri: 0, out_pri: 0).
10 | network_0/router_level1_7 |   Requesting VC 2 at output 9 (in_pri: 0, out_pri: 0).
10 | network_0/router_level1_7 |   Requesting VC 3 at output 9 (in_pri: 0, out_pri: 0).
10 | network_0/router_level1_7/vc_allocator | Input requests = [ 0 -> [ 36@0 37@0 38@0 39@0 ]  28 -> [ 48@0 49@0 50@0 51@0 ]  ], output requests = [ 36 -> [ 0@0 ]  37 -> [ 0@0 ]  38 -> [ 0@0 ]  39 -> [ 0@0 ]  48 -> [ 28@0 ]  49 -> [ 28@0 ]  50 -> [ 28@0 ]  51 -> [ 28@0 ]  ].
10 | network_0/router_level1_7/vc_allocator | Input grants = [ 0 -> 36  28 -> 48  ], output grants = [ 36 -> 0  48 -> 28  ].
10 | network_0/router_level1_7 | Assigning VC 0 at output 9 to VC 0 at input 0.
10 | network_0/router_level1_7 | Completed VC allocation for VC 0 at input 0 (front: 3).
10 | network_0/router_level1_7 |   Acquiring assigned VC 0 at output 9.
10 | network_0/router_level1_7/buf_0/vc_0 | Changing state from vc_alloc to active.
10 | network_0/router_level1_30 | Adding flit 9 to VC 0 at input 0 (state: idle, empty).
10 | network_0/router_level1_30 | Using precomputed lookahead routing information for VC 0 at input 0 (front: 9).
10 | network_0/router_level1_30/buf_0/vc_0 | Changing state from idle to vc_alloc.
10 | network_0/router_level1_30 | Beginning VC allocation for VC 0 at input 0 (front: 9).
10 | network_0/router_level1_30 |   Requesting VC 0 at output 9 (in_pri: 0, out_pri: 0).
10 | network_0/router_level1_30 |   Requesting VC 1 at output 9 (in_pri: 0, out_pri: 0).
10 | network_0/router_level1_30 |   Requesting VC 2 at output 9 (in_pri: 0, out_pri: 0).
10 | network_0/router_level1_30 |   Requesting VC 3 at output 9 (in_pri: 0, out_pri: 0).
10 | network_0/router_level1_30/vc_allocator | Input requests = [ 0 -> [ 36@0 37@0 38@0 39@0 ]  8 -> [ 60@0 61@0 62@0 63@0 ]  16 -> [ 60@0 61@0 62@0 63@0 ]  ], output requests = [ 36 -> [ 0@0 ]  37 -> [ 0@0 ]  38 -> [ 0@0 ]  39 -> [ 0@0 ]  60 -> [ 8@0 16@0 ]  61 -> [ 8@0 16@0 ]  62 -> [ 8@0 16@0 ]  63 -> [ 8@0 16@0 ]  ].
10 | network_0/router_level1_30/vc_allocator | Input grants = [ 0 -> 36  8 -> 60  ], output grants = [ 36 -> 0  60 -> 8  ].
10 | network_0/router_level1_30 | Assigning VC 0 at output 9 to VC 0 at input 0.
10 | network_0/router_level1_30 | Completed VC allocation for VC 0 at input 0 (front: 9).
10 | network_0/router_level1_30 |   Acquiring assigned VC 0 at output 9.
10 | network_0/router_level1_30/buf_0/vc_0 | Changing state from vc_alloc to active.
10 | network_0/router_level1_43 | Adding flit 7 to VC 0 at input 0 (state: idle, empty).
10 | network_0/router_level1_43 | Using precomputed lookahead routing information for VC 0 at input 0 (front: 7).
10 | network_0/router_level1_43/buf_0/vc_0 | Changing state from idle to vc_alloc.
10 | network_0/router_level1_43 | Beginning VC allocation for VC 0 at input 0 (front: 7).
10 | network_0/router_level1_43 |   Requesting VC 0 at output 15 (in_pri: 0, out_pri: 0).
10 | network_0/router_level1_43 |   Requesting VC 1 at output 15 (in_pri: 0, out_pri: 0).
10 | network_0/router_level1_43 |   Requesting VC 2 at output 15 (in_pri: 0, out_pri: 0).
10 | network_0/router_level1_43 |   Requesting VC 3 at output 15 (in_pri: 0, out_pri: 0).
10 | network_0/router_level1_43/vc_allocator | Input requests = [ 0 -> [ 60@0 61@0 62@0 63@0 ]  16 -> [ 32@0 33@0 34@0 35@0 ]  ], output requests = [ 32 -> [ 16@0 ]  33 -> [ 16@0 ]  34 -> [ 16@0 ]  35 -> [ 16@0 ]  60 -> [ 0@0 ]  61 -> [ 0@0 ]  62 -> [ 0@0 ]  63 -> [ 0@0 ]  ].
10 | network_0/router_level1_43/vc_allocator | Input grants = [ 0 -> 60  16 -> 32  ], output grants = [ 32 -> 16  60 -> 0  ].
10 | network_0/router_level1_43 | Assigning VC 0 at output 15 to VC 0 at input 0.
10 | network_0/router_level1_43 | Completed VC allocation for VC 0 at input 0 (front: 7).
10 | network_0/router_level1_43 |   Acquiring assigned VC 0 at output 15.
10 | network_0/router_level1_43/buf_0/vc_0 | Changing state from vc_alloc to active.
10 | network_0/router_level1_44 | Adding flit 10 to VC 0 at input 0 (state: idle, empty).
10 | network_0/router_level1_44 | Using precomputed lookahead routing information for VC 0 at input 0 (front: 10).
10 | network_0/router_level1_44/buf_0/vc_0 | Changing state from idle to vc_alloc.
10 | network_0/router_level1_44 | Beginning VC allocation for VC 0 at input 0 (front: 10).
10 | network_0/router_level1_44 |   Requesting VC 0 at output 10 (in_pri: 0, out_pri: 0).
10 | network_0/router_level1_44 |   Requesting VC 1 at output 10 (in_pri: 0, out_pri: 0).
10 | network_0/router_level1_44 |   Requesting VC 2 at output 10 (in_pri: 0, out_pri: 0).
10 | network_0/router_level1_44 |   Requesting VC 3 at output 10 (in_pri: 0, out_pri: 0).
10 | network_0/router_level1_44/vc_allocator | Input requests = [ 0 -> [ 40@0 41@0 42@0 43@0 ]  4 -> [ 0@0 1@0 2@0 3@0 ]  8 -> [ 52@0 53@0 54@0 55@0 ]  20 -> [ 52@0 53@0 54@0 55@0 ]  ], output requests = [ 0 -> [ 4@0 ]  1 -> [ 4@0 ]  2 -> [ 4@0 ]  3 -> [ 4@0 ]  40 -> [ 0@0 ]  41 -> [ 0@0 ]  42 -> [ 0@0 ]  43 -> [ 0@0 ]  52 -> [ 8@0 20@0 ]  53 -> [ 8@0 20@0 ]  54 -> [ 8@0 20@0 ]  55 -> [ 8@0 20@0 ]  ].
10 | network_0/router_level1_44/vc_allocator | Input grants = [ 0 -> 40  4 -> 0  8 -> 52  ], output grants = [ 0 -> 4  40 -> 0  52 -> 8  ].
10 | network_0/router_level1_44 | Assigning VC 0 at output 10 to VC 0 at input 0.
10 | network_0/router_level1_44 | Completed VC allocation for VC 0 at input 0 (front: 10).
10 | network_0/router_level1_44 |   Acquiring assigned VC 0 at output 10.
10 | network_0/router_level1_44/buf_0/vc_0 | Changing state from vc_alloc to active.
10 | network_0/router_level1_55 | Adding flit 1 to VC 0 at input 0 (state: idle, empty).
10 | network_0/router_level1_55 | Using precomputed lookahead routing information for VC 0 at input 0 (front: 1).
10 | network_0/router_level1_55/buf_0/vc_0 | Changing state from idle to vc_alloc.
10 | network_0/router_level1_55 | Beginning VC allocation for VC 0 at input 0 (front: 1).
10 | network_0/router_level1_55 |   Requesting VC 0 at output 4 (in_pri: 0, out_pri: 0).
10 | network_0/router_level1_55 |   Requesting VC 1 at output 4 (in_pri: 0, out_pri: 0).
10 | network_0/router_level1_55 |   Requesting VC 2 at output 4 (in_pri: 0, out_pri: 0).
10 | network_0/router_level1_55 |   Requesting VC 3 at output 4 (in_pri: 0, out_pri: 0).
10 | network_0/router_level1_55/vc_allocator | Input requests = [ 0 -> [ 16@0 17@0 18@0 19@0 ]  8 -> [ 44@0 45@0 46@0 47@0 ]  20 -> [ 56@0 57@0 58@0 59@0 ]  28 -> [ 40@0 41@0 42@0 43@0 ]  ], output requests = [ 16 -> [ 0@0 ]  17 -> [ 0@0 ]  18 -> [ 0@0 ]  19 -> [ 0@0 ]  40 -> [ 28@0 ]  41 -> [ 28@0 ]  42 -> [ 28@0 ]  43 -> [ 28@0 ]  44 -> [ 8@0 ]  45 -> [ 8@0 ]  46 -> [ 8@0 ]  47 -> [ 8@0 ]  56 -> [ 20@0 ]  57 -> [ 20@0 ]  58 -> [ 20@0 ]  59 -> [ 20@0 ]  ].
10 | network_0/router_level1_55/vc_allocator | Input grants = [ 0 -> 16  8 -> 44  20 -> 56  28 -> 40  ], output grants = [ 16 -> 0  40 -> 28  44 -> 8  56 -> 20  ].
10 | network_0/router_level1_55 | Assigning VC 0 at output 4 to VC 0 at input 0.
10 | network_0/router_level1_55 | Completed VC allocation for VC 0 at input 0 (front: 1).
10 | network_0/router_level1_55 |   Acquiring assigned VC 0 at output 4.
10 | network_0/router_level1_55/buf_0/vc_0 | Changing state from vc_alloc to active.
10 | network_0/router_level1_58 | Adding flit 8 to VC 0 at input 0 (state: idle, empty).
10 | network_0/router_level1_58 | Using precomputed lookahead routing information for VC 0 at input 0 (front: 8).
10 | network_0/router_level1_58/buf_0/vc_0 | Changing state from idle to vc_alloc.
10 | network_0/router_level1_58 | Beginning VC allocation for VC 0 at input 0 (front: 8).
10 | network_0/router_level1_58 |   Requesting VC 0 at output 8 (in_pri: 0, out_pri: 0).
10 | network_0/router_level1_58 |   Requesting VC 1 at output 8 (in_pri: 0, out_pri: 0).
10 | network_0/router_level1_58 |   Requesting VC 2 at output 8 (in_pri: 0, out_pri: 0).
10 | network_0/router_level1_58 |   Requesting VC 3 at output 8 (in_pri: 0, out_pri: 0).
10 | network_0/router_level1_58/vc_allocator | Input requests = [ 0 -> [ 32@0 33@0 34@0 35@0 ]  8 -> [ 60@0 61@0 62@0 63@0 ]  24 -> [ 36@0 37@0 38@0 39@0 ]  28 -> [ 48@0 49@0 50@0 51@0 ]  ], output requests = [ 32 -> [ 0@0 ]  33 -> [ 0@0 ]  34 -> [ 0@0 ]  35 -> [ 0@0 ]  36 -> [ 24@0 ]  37 -> [ 24@0 ]  38 -> [ 24@0 ]  39 -> [ 24@0 ]  48 -> [ 28@0 ]  49 -> [ 28@0 ]  50 -> [ 28@0 ]  51 -> [ 28@0 ]  60 -> [ 8@0 ]  61 -> [ 8@0 ]  62 -> [ 8@0 ]  63 -> [ 8@0 ]  ].
10 | network_0/router_level1_58/vc_allocator | Input grants = [ 0 -> 32  8 -> 60  24 -> 36  28 -> 48  ], output grants = [ 32 -> 0  36 -> 24  48 -> 28  60 -> 8  ].
10 | network_0/router_level1_58 | Assigning VC 0 at output 8 to VC 0 at input 0.
10 | network_0/router_level1_58 | Completed VC allocation for VC 0 at input 0 (front: 8).
10 | network_0/router_level1_58 |   Acquiring assigned VC 0 at output 8.
10 | network_0/router_level1_58/buf_0/vc_0 | Changing state from vc_alloc to active.
10 | network_0/network_0_fchan_12301 | Completed channel traversal for flit 5.
10 | network_0/network_0_fchan_12351 | Completed channel traversal for flit 2.
11 | network_0/router_level1_41 | Received flit 5 from channel at input 0.
11 | network_0/router_level1_63 | Received flit 2 from channel at input 0.
11 | network_0/router_level1_1 | Beginning switch allocation for VC 0 at input 0 (front: 4).
11 | network_0/router_level1_1 |   Requesting output 11.0 (non-spec, pri: 0).
11 | network_0/router_level1_1/sw_allocator | Input requests = [ 0 -> [ 11@0 ]  2 -> [ 10@0 ]  ], output requests = [ 10 -> [ 2@0 ]  11 -> [ 0@0 ]  ].
11 | network_0/router_level1_1/sw_allocator | Input grants = [ 0 -> 11  2 -> 10  ], output grants = [ 10 -> 2  11 -> 0  ].
11 | network_0/router_level1_1 | Assigning output 11.0 to VC 0 at input 0.0.
11 | network_0/router_level1_1 | Completed switch allocation for VC 0 at input 0 (front: 4).
11 | network_0/router_level1_1 |   Scheduling switch connection from input 0.0 to output 11.0.
11 | network_0/router_level1_1 | Updating lookahead routing information for flit 4.
11 | network_0/router_level1_4 | Beginning switch allocation for VC 0 at input 0 (front: 6).
11 | network_0/router_level1_4 |   Requesting output 14.0 (non-spec, pri: 0).
11 | network_0/router_level1_4/sw_allocator | Input requests = [ 0 -> [ 14@0 ]  3 -> [ 15@0 ]  4 -> [ 10@0 ]  7 -> [ 8@0 ]  ], output requests = [ 8 -> [ 7@0 ]  10 -> [ 4@0 ]  14 -> [ 0@0 ]  15 -> [ 3@0 ]  ].
11 | network_0/router_level1_4/sw_allocator | Input grants = [ 0 -> 14  3 -> 15  4 -> 10  7 -> 8  ], output grants = [ 8 -> 7  10 -> 4  14 -> 0  15 -> 3  ].
11 | network_0/router_level1_4 | Assigning output 14.0 to VC 0 at input 0.0.
11 | network_0/router_level1_4 | Completed switch allocation for VC 0 at input 0 (front: 6).
11 | network_0/router_level1_4 |   Scheduling switch connection from input 0.0 to output 14.0.
11 | network_0/router_level1_4 | Updating lookahead routing information for flit 6.
11 | network_0/router_level1_7 | Beginning switch allocation for VC 0 at input 0 (front: 3).
11 | network_0/router_level1_7 |   Requesting output 9.0 (non-spec, pri: 0).
11 | network_0/router_level1_7/sw_allocator | Input requests = [ 0 -> [ 9@0 ]  7 -> [ 12@0 ]  ], output requests = [ 9 -> [ 0@0 ]  12 -> [ 7@0 ]  ].
[...]
28 | network_0/router_level3_88 | Completed switch allocation for VC 0 at input 9 (front: 5).
28 | network_0/router_level3_88 |   Scheduling switch connection from input 9.0 to output 0.0.
28 | network_0/router_level3_96 | Beginning VC allocation for VC 0 at input 12 (front: 6).
28 | network_0/router_level3_96 |   VC 0 at output 0 is in use by VC 0 at input 11 (front flit: 2599).
28 | network_0/router_level3_96 |   Requesting VC 1 at output 0 (in_pri: 0, out_pri: 0).
28 | network_0/router_level3_96 |   Requesting VC 2 at output 0 (in_pri: 0, out_pri: 0).
28 | network_0/router_level3_96 |   Requesting VC 3 at output 0 (in_pri: 0, out_pri: 0).
28 | network_0/router_level3_96/vc_allocator | Input requests = [ 1 -> [ 60@0 61@0 62@0 63@0 ]  17 -> [ 51@0 ]  32 -> [ 1@0 2@0 3@0 ]  37 -> [ 24@0 25@0 26@0 27@0 ]  45 -> [ 28@0 29@0 30@0 31@0 ]  48 -> [ 1@0 2@0 3@0 ]  49 -> [ 16@0 17@0 18@0 19@0 ]  ], output requests = [ 1 -> [ 32@0 48@0 ]  2 -> [ 32@0 48@0 ]  3 -> [ 32@0 48@0 ]  16 -> [ 49@0 ]  17 -> [ 49@0 ]  18 -> [ 49@0 ]  19 -> [ 49@0 ]  24 -> [ 37@0 ]  25 -> [ 37@0 ]  26 -> [ 37@0 ]  27 -> [ 37@0 ]  28 -> [ 45@0 ]  29 -> [ 45@0 ]  30 -> [ 45@0 ]  31 -> [ 45@0 ]  51 -> [ 17@0 ]  60 -> [ 1@0 ]  61 -> [ 1@0 ]  62 -> [ 1@0 ]  63 -> [ 1@0 ]  ].
28 | network_0/router_level3_96/vc_allocator | Input grants = [ 1 -> 60  17 -> 51  32 -> 1  37 -> 24  45 -> 28  49 -> 16  ], output grants = [ 1 -> 32  16 -> 49  24 -> 37  28 -> 45  51 -> 17  60 -> 1  ].
28 | network_0/router_level3_96 | VC allocation failed for VC 0 at input 12.
28 | network_0/router_level3_96 | Completed VC allocation for VC 0 at input 12 (front: 6).
28 | network_0/router_level3_96 |   No output VC allocated.
28 | network_0/router_level3_104 | Beginning crossbar traversal for flit 7 from input 11.0 to output 0.0.
28 | network_0/router_level3_104 | Completed crossbar traversal for flit 7 from input 11.0 to output 0.0.
28 | network_0/router_level3_104 | Buffering flit 7 at output 0.
28 | network_0/router_level3_112 | Beginning switch allocation for VC 0 at input 10 (front: 8).
28 | network_0/router_level3_112 |   Requesting output 0.0 (non-spec, pri: 0).
28 | network_0/router_level3_112/sw_allocator | Input requests = [ 0 -> [ 15@0 ]  1 -> [ 11@0 ]  2 -> [ 8@0 12@0 ]  3 -> [ 12@0 13@0 ]  4 -> [ 8@0 10@0 ]  5 -> [ 13@0 ]  6 -> [ 8@0 ]  7 -> [ 15@0 ]  8 -> [ 5@0 ]  10 -> [ 0@0 ]  12 -> [ 2@0 ]  13 -> [ 1@0 ]  ], output requests = [ 0 -> [ 10@0 ]  1 -> [ 13@0 ]  2 -> [ 12@0 ]  5 -> [ 8@0 ]  8 -> [ 2@0 4@0 6@0 ]  10 -> [ 4@0 ]  11 -> [ 1@0 ]  12 -> [ 2@0 3@0 ]  13 -> [ 3@0 5@0 ]  15 -> [ 0@0 7@0 ]  ].
28 | network_0/router_level3_112/sw_allocator | Input grants = [ 1 -> 11  2 -> 8  3 -> 12  5 -> 13  7 -> 15  8 -> 5  10 -> 0  12 -> 2  13 -> 1  ], output grants = [ 0 -> 10  1 -> 13  2 -> 12  5 -> 8  8 -> 2  11 -> 1  12 -> 3  13 -> 5  15 -> 7  ].
28 | network_0/router_level3_112 | Assigning output 0.0 to VC 0 at input 10.0.
28 | network_0/router_level3_112 | Completed switch allocation for VC 0 at input 10 (front: 8).
28 | network_0/router_level3_112 |   Scheduling switch connection from input 10.0 to output 0.0.
28 | network_0/router_level3_120 | Beginning crossbar traversal for flit 9 from input 14.0 to output 0.0.
28 | network_0/router_level3_120 | Completed crossbar traversal for flit 9 from input 14.0 to output 0.0.
28 | network_0/router_level3_120 | Buffering flit 9 at output 0.
28 | network_0/router_level3_136 | Beginning crossbar traversal for flit 10 from input 12.0 to output 0.0.
28 | network_0/router_level3_136 | Completed crossbar traversal for flit 10 from input 12.0 to output 0.0.
28 | network_0/router_level3_136 | Buffering flit 10 at output 0.
28 | network_0/router_level3_64 | Sending flit 3 to channel at output 0.
28 | network_0/router_level3_104 | Sending flit 7 to channel at output 0.
28 | network_0/router_level3_120 | Sending flit 9 to channel at output 0.
28 | network_0/router_level3_136 | Sending flit 10 to channel at output 0.
29 | network_0/network_0_fchan_egress512 | Beginning channel traversal for flit 3 with delay 1.
29 | network_0/network_0_fchan_egress832 | Beginning channel traversal for flit 7 with delay 1.
29 | network_0/network_0_fchan_egress960 | Beginning channel traversal for flit 9 with delay 1.
29 | network_0/network_0_fchan_egress1088 | Beginning channel traversal for flit 10 with delay 1.
29 | network_0/router_level3_72 | Beginning switch allocation for VC 0 at input 9 (front: 4).
29 | network_0/router_level3_72 |   Requesting output 0.0 (non-spec, pri: 0).
29 | network_0/router_level3_72/sw_allocator | Input requests = [ 0 -> [ 8@0 13@0 ]  1 -> [ 10@0 14@0 ]  2 -> [ 11@0 15@0 ]  3 -> [ 8@0 10@0 15@0 ]  4 -> [ 11@0 ]  5 -> [ 13@0 14@0 ]  6 -> [ 9@0 ]  8 -> [ 6@0 ]  9 -> [ 0@0 ]  13 -> [ 7@0 ]  ], output requests = [ 0 -> [ 9@0 ]  6 -> [ 8@0 ]  7 -> [ 13@0 ]  8 -> [ 0@0 3@0 ]  9 -> [ 6@0 ]  10 -> [ 1@0 3@0 ]  11 -> [ 2@0 4@0 ]  13 -> [ 0@0 5@0 ]  14 -> [ 1@0 5@0 ]  15 -> [ 2@0 3@0 ]  ].
29 | network_0/router_level3_72/sw_allocator | Input grants = [ 0 -> 8  1 -> 10  2 -> 15  4 -> 11  5 -> 13  6 -> 9  8 -> 6  9 -> 0  13 -> 7  ], output grants = [ 0 -> 9  6 -> 8  7 -> 13  8 -> 0  9 -> 6  10 -> 1  11 -> 4  13 -> 5  15 -> 2  ].
29 | network_0/router_level3_72 | Assigning output 0.0 to VC 0 at input 9.0.
29 | network_0/router_level3_72 | Completed switch allocation for VC 0 at input 9 (front: 4).
29 | network_0/router_level3_72 |   Scheduling switch connection from input 9.0 to output 0.0.
29 | network_0/router_level3_88 | Beginning crossbar traversal for flit 5 from input 9.0 to output 0.0.
29 | network_0/router_level3_88 | Completed crossbar traversal for flit 5 from input 9.0 to output 0.0.
29 | network_0/router_level3_88 | Buffering flit 5 at output 0.
29 | network_0/router_level3_96 | Beginning VC allocation for VC 0 at input 12 (front: 6).
29 | network_0/router_level3_96 |   Requesting VC 0 at output 0 (in_pri: 0, out_pri: 0).
29 | network_0/router_level3_96 |   VC 1 at output 0 is in use by VC 0 at input 8 (front flit: 5293).
29 | network_0/router_level3_96 |   Requesting VC 2 at output 0 (in_pri: 0, out_pri: 0).
29 | network_0/router_level3_96 |   Requesting VC 3 at output 0 (in_pri: 0, out_pri: 0).
29 | network_0/router_level3_96/vc_allocator | Input requests = [ 2 -> [ 39@0 ]  7 -> [ 61@0 62@0 63@0 ]  10 -> [ 39@0 ]  15 -> [ 32@0 33@0 35@0 ]  21 -> [ 48@0 ]  24 -> [ 48@0 ]  26 -> [ 57@0 58@0 59@0 ]  30 -> [ 40@0 41@0 42@0 43@0 ]  31 -> [ 32@0 33@0 35@0 ]  33 -> [ 4@0 5@0 6@0 7@0 ]  36 -> [ 29@0 30@0 31@0 ]  44 -> [ 12@0 13@0 14@0 15@0 ]  48 -> [ 0@0 2@0 3@0 ]  52 -> [ 8@0 9@0 10@0 11@0 ]  60 -> [ 25@0 26@0 27@0 ]  ], output requests = [ 0 -> [ 48@0 ]  2 -> [ 48@0 ]  3 -> [ 48@0 ]  4 -> [ 33@0 ]  5 -> [ 33@0 ]  6 -> [ 33@0 ]  7 -> [ 33@0 ]  8 -> [ 52@0 ]  9 -> [ 52@0 ]  10 -> [ 52@0 ]  11 -> [ 52@0 ]  12 -> [ 44@0 ]  13 -> [ 44@0 ]  14 -> [ 44@0 ]  15 -> [ 44@0 ]  25 -> [ 60@0 ]  26 -> [ 60@0 ]  27 -> [ 60@0 ]  29 -> [ 36@0 ]  30 -> [ 36@0 ]  31 -> [ 36@0 ]  32 -> [ 15@0 31@0 ]  33 -> [ 15@0 31@0 ]  35 -> [ 15@0 31@0 ]  39 -> [ 2@0 10@0 ]  40 -> [ 30@0 ]  41 -> [ 30@0 ]  42 -> [ 30@0 ]  43 -> [ 30@0 ]  48 -> [ 21@0 24@0 ]  57 -> [ 26@0 ]  58 -> [ 26@0 ]  59 -> [ 26@0 ]  61 -> [ 7@0 ]  62 -> [ 7@0 ]  63 -> [ 7@0 ]  ].
29 | network_0/router_level3_96/vc_allocator | Input grants = [ 2 -> 39  7 -> 63  21 -> 48  26 -> 57  30 -> 40  31 -> 32  33 -> 4  36 -> 29  44 -> 12  48 -> 0  52 -> 8  60 -> 25  ], output grants = [ 0 -> 48  4 -> 33  8 -> 52  12 -> 44  25 -> 60  29 -> 36  32 -> 31  39 -> 2  40 -> 30  48 -> 21  57 -> 26  63 -> 7  ].
29 | network_0/router_level3_96 | Assigning VC 0 at output 0 to VC 0 at input 12.
29 | network_0/router_level3_96 | Completed VC allocation for VC 0 at input 12 (front: 6).
29 | network_0/router_level3_96 |   Acquiring assigned VC 0 at output 0.
29 | network_0/router_level3_96/buf_12/vc_0 | Changing state from vc_alloc to active.
29 | network_0/router_level3_112 | Beginning crossbar traversal for flit 8 from input 10.0 to output 0.0.
29 | network_0/router_level3_112 | Completed crossbar traversal for flit 8 from input 10.0 to output 0.0.
29 | network_0/router_level3_112 | Buffering flit 8 at output 0.
29 | network_0/network_0_fchan_egress512 | Completed channel traversal for flit 3.
29 | network_0/network_0_fchan_egress832 | Completed channel traversal for flit 7.
29 | network_0/network_0_fchan_egress960 | Completed channel traversal for flit 9.
29 | network_0/network_0_fchan_egress1088 | Completed channel traversal for flit 10.
29 | network_0/router_level3_88 | Sending flit 5 to channel at output 0.
29 | network_0/router_level3_112 | Sending flit 8 to channel at output 0.
30 | node512 | Ejecting flit 3 (packet 3) from VC 0.
30 | node832 | Ejecting flit 7 (packet 7) from VC 0.
30 | node960 | Ejecting flit 9 (packet 9) from VC 0.
30 | node1088 | Ejecting flit 10 (packet 10) from VC 0.
30 | network_0/network_0_fchan_egress704 | Beginning channel traversal for flit 5 with delay 1.
30 | network_0/network_0_fchan_egress896 | Beginning channel traversal for flit 8 with delay 1.
30 | node512 | Injecting credit for VC 0 into subnet 0.
30 | node512 | Retiring flit 3 (packet 3, src = 8, dest = 512, hops = 7, flat = 30).
30 | node512 | Retiring packet 3 (plat = 30, nlat = 30, frag = 0, src = 8, dest = 512).
30 | node832 | Injecting credit for VC 0 into subnet 0.
30 | node832 | Retiring flit 7 (packet 7, src = 13, dest = 832, hops = 7, flat = 30).
30 | node832 | Retiring packet 7 (plat = 30, nlat = 30, frag = 0, src = 13, dest = 832).
30 | node960 | Injecting credit for VC 0 into subnet 0.
30 | node960 | Retiring flit 9 (packet 9, src = 15, dest = 960, hops = 7, flat = 30).
30 | node960 | Retiring packet 9 (plat = 30, nlat = 30, frag = 0, src = 15, dest = 960).
30 | node1088 | Injecting credit for VC 0 into subnet 0.
30 | node1088 | Retiring flit 10 (packet 10, src = 17, dest = 1088, hops = 7, flat = 30).
30 | node1088 | Retiring packet 10 (plat = 30, nlat = 30, frag = 0, src = 17, dest = 1088).
30 | network_0/router_level3_72 | Beginning crossbar traversal for flit 4 from input 9.0 to output 0.0.
30 | network_0/router_level3_72 | Completed crossbar traversal for flit 4 from input 9.0 to output 0.0.
30 | network_0/router_level3_72 | Buffering flit 4 at output 0.
30 | network_0/router_level3_96 | Beginning switch allocation for VC 0 at input 12 (front: 6).
30 | network_0/router_level3_96 |   Requesting output 0.0 (non-spec, pri: 0).
30 | network_0/router_level3_96/sw_allocator | Input requests = [ 0 -> [ 9@0 ]  1 -> [ 15@0 ]  4 -> [ 11@0 12@0 14@0 ]  5 -> [ 12@0 ]  6 -> [ 14@0 ]  7 -> [ 8@0 10@0 ]  8 -> [ 1@0 ]  9 -> [ 7@0 ]  11 -> [ 3@0 ]  12 -> [ 0@0 ]  13 -> [ 2@0 ]  15 -> [ 6@0 ]  ], output requests = [ 0 -> [ 12@0 ]  1 -> [ 8@0 ]  2 -> [ 13@0 ]  3 -> [ 11@0 ]  6 -> [ 15@0 ]  7 -> [ 9@0 ]  8 -> [ 7@0 ]  9 -> [ 0@0 ]  10 -> [ 7@0 ]  11 -> [ 4@0 ]  12 -> [ 4@0 5@0 ]  14 -> [ 4@0 6@0 ]  15 -> [ 1@0 ]  ].
30 | network_0/router_level3_96/sw_allocator | Input grants = [ 0 -> 9  1 -> 15  4 -> 14  5 -> 12  7 -> 10  8 -> 1  9 -> 7  11 -> 3  12 -> 0  13 -> 2  15 -> 6  ], output grants = [ 0 -> 12  1 -> 8  2 -> 13  3 -> 11  6 -> 15  7 -> 9  9 -> 0  10 -> 7  12 -> 5  14 -> 4  15 -> 1  ].
30 | network_0/router_level3_96 | Assigning output 0.0 to VC 0 at input 12.0.
30 | network_0/router_level3_96 | Completed switch allocation for VC 0 at input 12 (front: 6).
30 | network_0/router_level3_96 |   Scheduling switch connection from input 12.0 to output 0.0.
30 | network_0/network_0_fchan_egress704 | Completed channel traversal for flit 5.
30 | network_0/network_0_fchan_egress896 | Completed channel traversal for flit 8.
30 | network_0/router_level3_72 | Sending flit 4 to channel at output 0.
31 | node704 | Ejecting flit 5 (packet 5) from VC 0.
31 | node896 | Ejecting flit 8 (packet 8) from VC 0.
31 | network_0/network_0_fchan_egress576 | Beginning channel traversal for flit 4 with delay 1.
31 | node704 | Injecting credit for VC 0 into subnet 0.
31 | node704 | Retiring flit 5 (packet 5, src = 11, dest = 704, hops = 7, flat = 31).
31 | node704 | Retiring packet 5 (plat = 31, nlat = 31, frag = 0, src = 11, dest = 704).
31 | node896 | Injecting credit for VC 0 into subnet 0.
31 | node896 | Retiring flit 8 (packet 8, src = 14, dest = 896, hops = 7, flat = 31).
31 | node896 | Retiring packet 8 (plat = 31, nlat = 31, frag = 0, src = 14, dest = 896).
31 | network_0/router_level3_96 | Beginning crossbar traversal for flit 6 from input 12.0 to output 0.0.
31 | network_0/router_level3_96 | Completed crossbar traversal for flit 6 from input 12.0 to output 0.0.
31 | network_0/router_level3_96 | Buffering flit 6 at output 0.
31 | network_0/network_0_fchan_egress576 | Completed channel traversal for flit 4.
31 | network_0/router_level3_96 | Sending flit 6 to channel at output 0.
32 | node576 | Ejecting flit 4 (packet 4) from VC 1.
32 | network_0/network_0_fchan_egress768 | Beginning channel traversal for flit 6 with delay 1.
32 | node576 | Injecting credit for VC 1 into subnet 0.
32 | node576 | Retiring flit 4 (packet 4, src = 9, dest = 576, hops = 7, flat = 32).
32 | node576 | Retiring packet 4 (plat = 32, nlat = 32, frag = 0, src = 9, dest = 576).
32 | network_0/network_0_fchan_egress768 | Completed channel traversal for flit 6.
33 | node768 | Ejecting flit 6 (packet 6) from VC 0.
33 | node768 | Injecting credit for VC 0 into subnet 0.
33 | node768 | Retiring flit 6 (packet 6, src = 12, dest = 768, hops = 7, flat = 33).
33 | node768 | Retiring packet 6 (plat = 33, nlat = 33, frag = 0, src = 12, dest = 768).
Class 0:
Packet latency average = 75.745
	minimum = 6
	maximum = 305
Network latency average = 75.745
	minimum = 6
	maximum = 305
Slowest packet = 1577879
Flit latency average = 75.745
	minimum = 6
	maximum = 305
Slowest flit = 1577879
Fragmentation average = 0
	minimum = 0
	maximum = 0
Injected packet rate average = 0.649729
	minimum = 0.596 (at node 746)
	maximum = 0.698 (at node 13)
Accepted packet rate average = 0.587892
	minimum = 0.532 (at node 2699)
	maximum = 0.678 (at node 455)
Injected flit rate average = 0.649729
	minimum = 0.596 (at node 746)
	maximum = 0.698 (at node 13)
Accepted flit rate average= 0.587892
	minimum = 0.532 (at node 2699)
	maximum = 0.678 (at node 455)
Injected packet length average = 1
Accepted packet length average = 1
Total in-flight flits = 253284 (0 measured)
latency change    = 1
throughput change = 1
Class 0:
Packet latency average = 90.3698
	minimum = 6
	maximum = 376
Network latency average = 90.3698
	minimum = 6
	maximum = 376
Slowest packet = 3517695
Flit latency average = 90.3698
	minimum = 6
	maximum = 376
Slowest flit = 3517695
Fragmentation average = 0
	minimum = 0
	maximum = 0
Injected packet rate average = 0.649816
	minimum = 0.6105 (at node 1425)
	maximum = 0.688 (at node 2257)
Accepted packet rate average = 0.6138
	minimum = 0.5695 (at node 2699)
	maximum = 0.6645 (at node 1625)
Injected flit rate average = 0.649816
	minimum = 0.6105 (at node 1425)
	maximum = 0.688 (at node 2257)
Accepted flit rate average= 0.6138
	minimum = 0.5695 (at node 2699)
	maximum = 0.6645 (at node 1625)
Injected packet length average = 1
Accepted packet length average = 1
Total in-flight flits = 295038 (0 measured)
latency change    = 0.161833
throughput change = 0.0422091
Class 0:
Packet latency average = 114.207
	minimum = 6
	maximum = 405
Network latency average = 114.207
	minimum = 6
	maximum = 405
Slowest packet = 6171422
Flit latency average = 114.207
	minimum = 6
	maximum = 405
Slowest flit = 6171422
Fragmentation average = 0
	minimum = 0
	maximum = 0
Injected packet rate average = 0.650043
	minimum = 0.598 (at node 688)
	maximum = 0.705 (at node 3032)
Accepted packet rate average = 0.645918
	minimum = 0.588 (at node 1736)
	maximum = 0.7 (at node 1123)
Injected flit rate average = 0.650043
	minimum = 0.598 (at node 688)
	maximum = 0.705 (at node 3032)
Accepted flit rate average= 0.645918
	minimum = 0.588 (at node 1736)
	maximum = 0.7 (at node 1123)
Injected packet length average = 1
Accepted packet length average = 1
Total in-flight flits = 311934 (0 measured)
latency change    = 0.208718
throughput change = 0.0497241
Warmed up ...Time used is 3000 cycles
Class 0:
Packet latency average = 116.309
	minimum = 6
	maximum = 417
Network latency average = 116.309
	minimum = 6
	maximum = 417
Slowest packet = 9418155
Flit latency average = 118.52
	minimum = 6
	maximum = 425
Slowest flit = 7458479
Fragmentation average = 0
	minimum = 0
	maximum = 0
Injected packet rate average = 0.649896
	minimum = 0.603 (at node 1114)
	maximum = 0.698 (at node 3432)
Accepted packet rate average = 0.648214
	minimum = 0.599 (at node 176)
	maximum = 0.7 (at node 3485)
Injected flit rate average = 0.649896
	minimum = 0.603 (at node 1114)
	maximum = 0.698 (at node 3432)
Accepted flit rate average= 0.648214
	minimum = 0.599 (at node 176)
	maximum = 0.7 (at node 3485)
Injected packet length average = 1
Accepted packet length average = 1
Total in-flight flits = 318822 (318822 measured)
latency change    = 0.0180712
throughput change = 0.00354188
Class 0:
Packet latency average = 118.564
	minimum = 6
	maximum = 422
Network latency average = 118.564
	minimum = 6
	maximum = 422
Slowest packet = 11337847
Flit latency average = 119.537
	minimum = 6
	maximum = 425
Slowest flit = 7458479
Fragmentation average = 0
	minimum = 0
	maximum = 0
Injected packet rate average = 0.649937
	minimum = 0.6125 (at node 2069)
	maximum = 0.686 (at node 3730)
Accepted packet rate average = 0.648609
	minimum = 0.615 (at node 1515)
	maximum = 0.688 (at node 4007)
Injected flit rate average = 0.649937
	minimum = 0.6125 (at node 2069)
	maximum = 0.686 (at node 3730)
Accepted flit rate average= 0.648609
	minimum = 0.615 (at node 1515)
	maximum = 0.688 (at node 4007)
Injected packet length average = 1
Accepted packet length average = 1
Total in-flight flits = 322813 (322813 measured)
latency change    = 0.0190255
throughput change = 0.000609402
Class 0:
Packet latency average = 119.655
	minimum = 6
	maximum = 423
Network latency average = 119.654
	minimum = 6
	maximum = 423
Slowest packet = 12933157
Flit latency average = 120.26
	minimum = 6
	maximum = 425
Slowest flit = 7458479
Fragmentation average = 0
	minimum = 0
	maximum = 0
Injected packet rate average = 0.650031
	minimum = 0.62 (at node 3633)
	maximum = 0.682 (at node 399)
Accepted packet rate average = 0.648985
	minimum = 0.612667 (at node 3192)
	maximum = 0.683 (at node 4007)
Injected flit rate average = 0.650031
	minimum = 0.62 (at node 3633)
	maximum = 0.682 (at node 399)
Accepted flit rate average= 0.648985
	minimum = 0.612667 (at node 3192)
	maximum = 0.683 (at node 4007)
Injected packet length average = 1
Accepted packet length average = 1
Total in-flight flits = 324788 (324788 measured)
latency change    = 0.0091123
throughput change = 0.000578453
Draining all recorded packets ...
Draining remaining packets ...
Time taken is 6544 cycles
====== Overall Traffic Statistics ======
====== Traffic class 0 ======
Packet latency average = 120.506 (1 samples)
	minimum = 6 (1 samples)
	maximum = 423 (1 samples)
Network latency average = 120.505 (1 samples)
	minimum = 6 (1 samples)
	maximum = 423 (1 samples)
Flit latency average = 120.963 (1 samples)
	minimum = 6 (1 samples)
	maximum = 425 (1 samples)
Fragmentation average = 0 (1 samples)
	minimum = 0 (1 samples)
	maximum = 0 (1 samples)
Injected packet rate average = 0.650031 (1 samples)
	minimum = 0.62 (1 samples)
	maximum = 0.682 (1 samples)
Accepted packet rate average = 0.648985 (1 samples)
	minimum = 0.612667 (1 samples)
	maximum = 0.683 (1 samples)
Injected flit rate average = 0.650031 (1 samples)
	minimum = 0.62 (1 samples)
	maximum = 0.682 (1 samples)
Accepted flit rate average = 0.648985 (1 samples)
	minimum = 0.612667 (1 samples)
	maximum = 0.683 (1 samples)
Injected packet size average = 1 (1 samples)
Accepted packet size average = 1 (1 samples)
Hops average = 6.68744 (1 samples)
Total run time 1651.63
