BEGIN Configuration File: examples/fattree_config_0.45_4_uniform
// $Id: dragonflyconfig 3555 2011-05-16 23:37:55Z dub $

// Copyright (c) 2007-2015, Trustees of The Leland Stanford Junior University
// All rights reserved.
//
// Redistribution and use in source and binary forms, with or without
// modification, are permitted provided that the following conditions are met:
//
// Redistributions of source code must retain the above copyright notice, this
// list of conditions and the following disclaimer.
// Redistributions in binary form must reproduce the above copyright notice,
// this list of conditions and the following disclaimer in the documentation
// and/or other materials provided with the distribution.
//
// THIS SOFTWARE IS PROVIDED BY THE COPYRIGHT HOLDERS AND CONTRIBUTORS "AS IS"
// AND ANY EXPRESS OR IMPLIED WARRANTIES, INCLUDING, BUT NOT LIMITED TO, THE
// IMPLIED WARRANTIES OF MERCHANTABILITY AND FITNESS FOR A PARTICULAR PURPOSE
// ARE DISCLAIMED. IN NO EVENT SHALL THE COPYRIGHT OWNER OR CONTRIBUTORS BE
// LIABLE FOR ANY DIRECT, INDIRECT, INCIDENTAL, SPECIAL, EXEMPLARY, OR
// CONSEQUENTIAL DAMAGES (INCLUDING, BUT NOT LIMITED TO, PROCUREMENT OF
// SUBSTITUTE GOODS OR SERVICES; LOSS OF USE, DATA, OR PROFITS; OR BUSINESS
// INTERRUPTION) HOWEVER CAUSED AND ON ANY THEORY OF LIABILITY, WHETHER IN
// CONTRACT, STRICT LIABILITY, OR TORT (INCLUDING NEGLIGENCE OR OTHERWISE)
// ARISING IN ANY WAY OUT OF THE USE OF THIS SOFTWARE, EVEN IF ADVISED OF THE
// POSSIBILITY OF SUCH DAMAGE.


hold_switch_for_packet=1;

vc_buf_size = 16;


wait_for_tail_credit = 0;

//
// Router architecture
//
vc_allocator = separable_input_first; 
sw_allocator = separable_input_first;
alloc_iters  = 1;

credit_delay   = 2;
routing_delay  = 0;
vc_alloc_delay = 1;
sw_alloc_delay = 1;
st_final_delay = 1;

input_speedup     = 1;
output_speedup    = 1;
internal_speedup  = 1.0;


warmup_periods = 3;
sim_count          = 1;

sample_period  = 1000;  

routing_function = nca;
num_vcs     = 4;

priority = none;
traffic = uniform;


injection_rate = 0.45;
packet_size = 1;
injection_rate_uses_flits=1;

topology = fattree;

k  = 8;
n  = 4;
t = 4;

watch_file = watchfile.txt;
watch_out=-;
stats_out = examples/fattree_config_0.45_4_uniform.m;

END Configuration File: examples/fattree_config_0.45_4_uniform
Fat Tree
 k = 8 levels = 4
 each switch - total radix =  16
 # of switches = 2048
 # of channels = 24576
 # of nodes ( size of network ) = 4096
 tapering factor = 4
0 | node8 | Enqueuing flit 1 (packet 1) at time 0.
0 | node9 | Enqueuing flit 2 (packet 2) at time 0.
0 | node11 | Enqueuing flit 3 (packet 3) at time 0.
0 | node12 | Enqueuing flit 4 (packet 4) at time 0.
0 | node13 | Enqueuing flit 5 (packet 5) at time 0.
0 | node14 | Enqueuing flit 6 (packet 6) at time 0.
0 | node15 | Enqueuing flit 7 (packet 7) at time 0.
0 | node18 | Enqueuing flit 8 (packet 8) at time 0.
0 | node19 | Enqueuing flit 9 (packet 9) at time 0.
0 | node20 | Enqueuing flit 10 (packet 10) at time 0.
0 | traffic_manager | Finding output VC for flit 1:
0 | traffic_manager |   Selected output VC 0.
0 | node8 | Generating lookahead routing info for flit 1.
0 | node8 | Injecting flit 1 into subnet 0 at time 0 with priority 0.
0 | traffic_manager | Finding output VC for flit 2:
0 | traffic_manager |   Selected output VC 0.
0 | node9 | Generating lookahead routing info for flit 2.
0 | node9 | Injecting flit 2 into subnet 0 at time 0 with priority 0.
0 | traffic_manager | Finding output VC for flit 3:
0 | traffic_manager |   Selected output VC 0.
0 | node11 | Generating lookahead routing info for flit 3.
0 | node11 | Injecting flit 3 into subnet 0 at time 0 with priority 0.
0 | traffic_manager | Finding output VC for flit 4:
0 | traffic_manager |   Selected output VC 0.
0 | node12 | Generating lookahead routing info for flit 4.
0 | node12 | Injecting flit 4 into subnet 0 at time 0 with priority 0.
0 | traffic_manager | Finding output VC for flit 5:
0 | traffic_manager |   Selected output VC 0.
0 | node13 | Generating lookahead routing info for flit 5.
0 | node13 | Injecting flit 5 into subnet 0 at time 0 with priority 0.
0 | traffic_manager | Finding output VC for flit 6:
0 | traffic_manager |   Selected output VC 0.
0 | node14 | Generating lookahead routing info for flit 6.
0 | node14 | Injecting flit 6 into subnet 0 at time 0 with priority 0.
0 | traffic_manager | Finding output VC for flit 7:
0 | traffic_manager |   Selected output VC 0.
0 | node15 | Generating lookahead routing info for flit 7.
0 | node15 | Injecting flit 7 into subnet 0 at time 0 with priority 0.
0 | traffic_manager | Finding output VC for flit 8:
0 | traffic_manager |   Selected output VC 0.
0 | node18 | Generating lookahead routing info for flit 8.
0 | node18 | Injecting flit 8 into subnet 0 at time 0 with priority 0.
0 | traffic_manager | Finding output VC for flit 9:
0 | traffic_manager |   Selected output VC 0.
0 | node19 | Generating lookahead routing info for flit 9.
0 | node19 | Injecting flit 9 into subnet 0 at time 0 with priority 0.
0 | traffic_manager | Finding output VC for flit 10:
0 | traffic_manager |   Selected output VC 0.
0 | node20 | Generating lookahead routing info for flit 10.
0 | node20 | Injecting flit 10 into subnet 0 at time 0 with priority 0.
1 | network_0/network_0_fchan_ingress8 | Beginning channel traversal for flit 1 with delay 1.
1 | network_0/network_0_fchan_ingress9 | Beginning channel traversal for flit 2 with delay 1.
1 | network_0/network_0_fchan_ingress11 | Beginning channel traversal for flit 3 with delay 1.
1 | network_0/network_0_fchan_ingress12 | Beginning channel traversal for flit 4 with delay 1.
1 | network_0/network_0_fchan_ingress13 | Beginning channel traversal for flit 5 with delay 1.
1 | network_0/network_0_fchan_ingress14 | Beginning channel traversal for flit 6 with delay 1.
1 | network_0/network_0_fchan_ingress15 | Beginning channel traversal for flit 7 with delay 1.
1 | network_0/network_0_fchan_ingress18 | Beginning channel traversal for flit 8 with delay 1.
1 | network_0/network_0_fchan_ingress19 | Beginning channel traversal for flit 9 with delay 1.
1 | network_0/network_0_fchan_ingress20 | Beginning channel traversal for flit 10 with delay 1.
1 | network_0/network_0_fchan_ingress8 | Completed channel traversal for flit 1.
1 | network_0/network_0_fchan_ingress9 | Completed channel traversal for flit 2.
1 | network_0/network_0_fchan_ingress11 | Completed channel traversal for flit 3.
1 | network_0/network_0_fchan_ingress12 | Completed channel traversal for flit 4.
1 | network_0/network_0_fchan_ingress13 | Completed channel traversal for flit 5.
1 | network_0/network_0_fchan_ingress14 | Completed channel traversal for flit 6.
1 | network_0/network_0_fchan_ingress15 | Completed channel traversal for flit 7.
1 | network_0/network_0_fchan_ingress18 | Completed channel traversal for flit 8.
1 | network_0/network_0_fchan_ingress19 | Completed channel traversal for flit 9.
1 | network_0/network_0_fchan_ingress20 | Completed channel traversal for flit 10.
2 | network_0/router_level3_1 | Received flit 1 from channel at input 0.
2 | network_0/router_level3_1 | Received flit 2 from channel at input 1.
2 | network_0/router_level3_1 | Received flit 3 from channel at input 3.
2 | network_0/router_level3_1 | Received flit 4 from channel at input 4.
2 | network_0/router_level3_1 | Received flit 5 from channel at input 5.
2 | network_0/router_level3_1 | Received flit 6 from channel at input 6.
2 | network_0/router_level3_1 | Received flit 7 from channel at input 7.
2 | network_0/router_level3_2 | Received flit 8 from channel at input 2.
2 | network_0/router_level3_2 | Received flit 9 from channel at input 3.
2 | network_0/router_level3_2 | Received flit 10 from channel at input 4.
2 | network_0/router_level3_1 | Adding flit 1 to VC 0 at input 0 (state: idle, empty).
2 | network_0/router_level3_1 | Using precomputed lookahead routing information for VC 0 at input 0 (front: 1).
2 | network_0/router_level3_1/buf_0/vc_0 | Changing state from idle to vc_alloc.
2 | network_0/router_level3_1 | Adding flit 2 to VC 0 at input 1 (state: idle, empty).
2 | network_0/router_level3_1 | Using precomputed lookahead routing information for VC 0 at input 1 (front: 2).
2 | network_0/router_level3_1/buf_1/vc_0 | Changing state from idle to vc_alloc.
2 | network_0/router_level3_1 | Adding flit 3 to VC 0 at input 3 (state: idle, empty).
2 | network_0/router_level3_1 | Using precomputed lookahead routing information for VC 0 at input 3 (front: 3).
2 | network_0/router_level3_1/buf_3/vc_0 | Changing state from idle to vc_alloc.
2 | network_0/router_level3_1 | Adding flit 4 to VC 0 at input 4 (state: idle, empty).
2 | network_0/router_level3_1 | Using precomputed lookahead routing information for VC 0 at input 4 (front: 4).
2 | network_0/router_level3_1/buf_4/vc_0 | Changing state from idle to vc_alloc.
2 | network_0/router_level3_1 | Adding flit 5 to VC 0 at input 5 (state: idle, empty).
2 | network_0/router_level3_1 | Using precomputed lookahead routing information for VC 0 at input 5 (front: 5).
2 | network_0/router_level3_1/buf_5/vc_0 | Changing state from idle to vc_alloc.
2 | network_0/router_level3_1 | Adding flit 6 to VC 0 at input 6 (state: idle, empty).
2 | network_0/router_level3_1 | Using precomputed lookahead routing information for VC 0 at input 6 (front: 6).
2 | network_0/router_level3_1/buf_6/vc_0 | Changing state from idle to vc_alloc.
2 | network_0/router_level3_1 | Adding flit 7 to VC 0 at input 7 (state: idle, empty).
2 | network_0/router_level3_1 | Using precomputed lookahead routing information for VC 0 at input 7 (front: 7).
2 | network_0/router_level3_1/buf_7/vc_0 | Changing state from idle to vc_alloc.
2 | network_0/router_level3_1 | Beginning VC allocation for VC 0 at input 0 (front: 1).
2 | network_0/router_level3_1 |   Requesting VC 0 at output 13 (in_pri: 0, out_pri: 0).
2 | network_0/router_level3_1 |   Requesting VC 1 at output 13 (in_pri: 0, out_pri: 0).
2 | network_0/router_level3_1 |   Requesting VC 2 at output 13 (in_pri: 0, out_pri: 0).
2 | network_0/router_level3_1 |   Requesting VC 3 at output 13 (in_pri: 0, out_pri: 0).
2 | network_0/router_level3_1 | Beginning VC allocation for VC 0 at input 1 (front: 2).
2 | network_0/router_level3_1 |   Requesting VC 0 at output 9 (in_pri: 0, out_pri: 0).
2 | network_0/router_level3_1 |   Requesting VC 1 at output 9 (in_pri: 0, out_pri: 0).
2 | network_0/router_level3_1 |   Requesting VC 2 at output 9 (in_pri: 0, out_pri: 0).
2 | network_0/router_level3_1 |   Requesting VC 3 at output 9 (in_pri: 0, out_pri: 0).
2 | network_0/router_level3_1 | Beginning VC allocation for VC 0 at input 3 (front: 3).
2 | network_0/router_level3_1 |   Requesting VC 0 at output 15 (in_pri: 0, out_pri: 0).
2 | network_0/router_level3_1 |   Requesting VC 1 at output 15 (in_pri: 0, out_pri: 0).
2 | network_0/router_level3_1 |   Requesting VC 2 at output 15 (in_pri: 0, out_pri: 0).
2 | network_0/router_level3_1 |   Requesting VC 3 at output 15 (in_pri: 0, out_pri: 0).
2 | network_0/router_level3_1 | Beginning VC allocation for VC 0 at input 4 (front: 4).
2 | network_0/router_level3_1 |   Requesting VC 0 at output 14 (in_pri: 0, out_pri: 0).
2 | network_0/router_level3_1 |   Requesting VC 1 at output 14 (in_pri: 0, out_pri: 0).
2 | network_0/router_level3_1 |   Requesting VC 2 at output 14 (in_pri: 0, out_pri: 0).
2 | network_0/router_level3_1 |   Requesting VC 3 at output 14 (in_pri: 0, out_pri: 0).
2 | network_0/router_level3_1 | Beginning VC allocation for VC 0 at input 5 (front: 5).
2 | network_0/router_level3_1 |   Requesting VC 0 at output 15 (in_pri: 0, out_pri: 0).
2 | network_0/router_level3_1 |   Requesting VC 1 at output 15 (in_pri: 0, out_pri: 0).
2 | network_0/router_level3_1 |   Requesting VC 2 at output 15 (in_pri: 0, out_pri: 0).
2 | network_0/router_level3_1 |   Requesting VC 3 at output 15 (in_pri: 0, out_pri: 0).
2 | network_0/router_level3_1 | Beginning VC allocation for VC 0 at input 6 (front: 6).
2 | network_0/router_level3_1 |   Requesting VC 0 at output 12 (in_pri: 0, out_pri: 0).
2 | network_0/router_level3_1 |   Requesting VC 1 at output 12 (in_pri: 0, out_pri: 0).
2 | network_0/router_level3_1 |   Requesting VC 2 at output 12 (in_pri: 0, out_pri: 0).
2 | network_0/router_level3_1 |   Requesting VC 3 at output 12 (in_pri: 0, out_pri: 0).
2 | network_0/router_level3_1 | Beginning VC allocation for VC 0 at input 7 (front: 7).
2 | network_0/router_level3_1 |   Requesting VC 0 at output 13 (in_pri: 0, out_pri: 0).
2 | network_0/router_level3_1 |   Requesting VC 1 at output 13 (in_pri: 0, out_pri: 0).
2 | network_0/router_level3_1 |   Requesting VC 2 at output 13 (in_pri: 0, out_pri: 0).
2 | network_0/router_level3_1 |   Requesting VC 3 at output 13 (in_pri: 0, out_pri: 0).
2 | network_0/router_level3_1/vc_allocator | Input requests = [ 0 -> [ 52@0 53@0 54@0 55@0 ]  4 -> [ 36@0 37@0 38@0 39@0 ]  12 -> [ 60@0 61@0 62@0 63@0 ]  16 -> [ 56@0 57@0 58@0 59@0 ]  20 -> [ 60@0 61@0 62@0 63@0 ]  24 -> [ 48@0 49@0 50@0 51@0 ]  28 -> [ 52@0 53@0 54@0 55@0 ]  ], output requests = [ 36 -> [ 4@0 ]  37 -> [ 4@0 ]  38 -> [ 4@0 ]  39 -> [ 4@0 ]  48 -> [ 24@0 ]  49 -> [ 24@0 ]  50 -> [ 24@0 ]  51 -> [ 24@0 ]  52 -> [ 0@0 28@0 ]  53 -> [ 0@0 28@0 ]  54 -> [ 0@0 28@0 ]  55 -> [ 0@0 28@0 ]  56 -> [ 16@0 ]  57 -> [ 16@0 ]  58 -> [ 16@0 ]  59 -> [ 16@0 ]  60 -> [ 12@0 20@0 ]  61 -> [ 12@0 20@0 ]  62 -> [ 12@0 20@0 ]  63 -> [ 12@0 20@0 ]  ].
2 | network_0/router_level3_1/vc_allocator | Input grants = [ 0 -> 52  4 -> 36  12 -> 60  16 -> 56  24 -> 48  ], output grants = [ 36 -> 4  48 -> 24  52 -> 0  56 -> 16  60 -> 12  ].
2 | network_0/router_level3_1 | Assigning VC 0 at output 13 to VC 0 at input 0.
2 | network_0/router_level3_1 | Assigning VC 0 at output 9 to VC 0 at input 1.
2 | network_0/router_level3_1 | Assigning VC 0 at output 15 to VC 0 at input 3.
2 | network_0/router_level3_1 | Assigning VC 0 at output 14 to VC 0 at input 4.
2 | network_0/router_level3_1 | VC allocation failed for VC 0 at input 5.
2 | network_0/router_level3_1 | Assigning VC 0 at output 12 to VC 0 at input 6.
2 | network_0/router_level3_1 | VC allocation failed for VC 0 at input 7.
2 | network_0/router_level3_1 | Completed VC allocation for VC 0 at input 0 (front: 1).
2 | network_0/router_level3_1 |   Acquiring assigned VC 0 at output 13.
2 | network_0/router_level3_1/buf_0/vc_0 | Changing state from vc_alloc to active.
2 | network_0/router_level3_1 | Completed VC allocation for VC 0 at input 1 (front: 2).
2 | network_0/router_level3_1 |   Acquiring assigned VC 0 at output 9.
2 | network_0/router_level3_1/buf_1/vc_0 | Changing state from vc_alloc to active.
2 | network_0/router_level3_1 | Completed VC allocation for VC 0 at input 3 (front: 3).
2 | network_0/router_level3_1 |   Acquiring assigned VC 0 at output 15.
2 | network_0/router_level3_1/buf_3/vc_0 | Changing state from vc_alloc to active.
2 | network_0/router_level3_1 | Completed VC allocation for VC 0 at input 4 (front: 4).
2 | network_0/router_level3_1 |   Acquiring assigned VC 0 at output 14.
2 | network_0/router_level3_1/buf_4/vc_0 | Changing state from vc_alloc to active.
2 | network_0/router_level3_1 | Completed VC allocation for VC 0 at input 5 (front: 5).
2 | network_0/router_level3_1 |   No output VC allocated.
2 | network_0/router_level3_1 | Completed VC allocation for VC 0 at input 6 (front: 6).
2 | network_0/router_level3_1 |   Acquiring assigned VC 0 at output 12.
2 | network_0/router_level3_1/buf_6/vc_0 | Changing state from vc_alloc to active.
2 | network_0/router_level3_1 | Completed VC allocation for VC 0 at input 7 (front: 7).
2 | network_0/router_level3_1 |   No output VC allocated.
2 | network_0/router_level3_2 | Adding flit 8 to VC 0 at input 2 (state: idle, empty).
2 | network_0/router_level3_2 | Using precomputed lookahead routing information for VC 0 at input 2 (front: 8).
2 | network_0/router_level3_2/buf_2/vc_0 | Changing state from idle to vc_alloc.
2 | network_0/router_level3_2 | Adding flit 9 to VC 0 at input 3 (state: idle, empty).
2 | network_0/router_level3_2 | Using precomputed lookahead routing information for VC 0 at input 3 (front: 9).
2 | network_0/router_level3_2/buf_3/vc_0 | Changing state from idle to vc_alloc.
2 | network_0/router_level3_2 | Adding flit 10 to VC 0 at input 4 (state: idle, empty).
2 | network_0/router_level3_2 | Using precomputed lookahead routing information for VC 0 at input 4 (front: 10).
2 | network_0/router_level3_2/buf_4/vc_0 | Changing state from idle to vc_alloc.
2 | network_0/router_level3_2 | Beginning VC allocation for VC 0 at input 2 (front: 8).
2 | network_0/router_level3_2 |   Requesting VC 0 at output 8 (in_pri: 0, out_pri: 0).
2 | network_0/router_level3_2 |   Requesting VC 1 at output 8 (in_pri: 0, out_pri: 0).
2 | network_0/router_level3_2 |   Requesting VC 2 at output 8 (in_pri: 0, out_pri: 0).
2 | network_0/router_level3_2 |   Requesting VC 3 at output 8 (in_pri: 0, out_pri: 0).
2 | network_0/router_level3_2 | Beginning VC allocation for VC 0 at input 3 (front: 9).
2 | network_0/router_level3_2 |   Requesting VC 0 at output 9 (in_pri: 0, out_pri: 0).
2 | network_0/router_level3_2 |   Requesting VC 1 at output 9 (in_pri: 0, out_pri: 0).
2 | network_0/router_level3_2 |   Requesting VC 2 at output 9 (in_pri: 0, out_pri: 0).
2 | network_0/router_level3_2 |   Requesting VC 3 at output 9 (in_pri: 0, out_pri: 0).
2 | network_0/router_level3_2 | Beginning VC allocation for VC 0 at input 4 (front: 10).
2 | network_0/router_level3_2 |   Requesting VC 0 at output 15 (in_pri: 0, out_pri: 0).
2 | network_0/router_level3_2 |   Requesting VC 1 at output 15 (in_pri: 0, out_pri: 0).
2 | network_0/router_level3_2 |   Requesting VC 2 at output 15 (in_pri: 0, out_pri: 0).
2 | network_0/router_level3_2 |   Requesting VC 3 at output 15 (in_pri: 0, out_pri: 0).
2 | network_0/router_level3_2/vc_allocator | Input requests = [ 8 -> [ 32@0 33@0 34@0 35@0 ]  12 -> [ 36@0 37@0 38@0 39@0 ]  16 -> [ 60@0 61@0 62@0 63@0 ]  20 -> [ 56@0 57@0 58@0 59@0 ]  28 -> [ 44@0 45@0 46@0 47@0 ]  ], output requests = [ 32 -> [ 8@0 ]  33 -> [ 8@0 ]  34 -> [ 8@0 ]  35 -> [ 8@0 ]  36 -> [ 12@0 ]  37 -> [ 12@0 ]  38 -> [ 12@0 ]  39 -> [ 12@0 ]  44 -> [ 28@0 ]  45 -> [ 28@0 ]  46 -> [ 28@0 ]  47 -> [ 28@0 ]  56 -> [ 20@0 ]  57 -> [ 20@0 ]  58 -> [ 20@0 ]  59 -> [ 20@0 ]  60 -> [ 16@0 ]  61 -> [ 16@0 ]  62 -> [ 16@0 ]  63 -> [ 16@0 ]  ].
2 | network_0/router_level3_2/vc_allocator | Input grants = [ 8 -> 32  12 -> 36  16 -> 60  20 -> 56  28 -> 44  ], output grants = [ 32 -> 8  36 -> 12  44 -> 28  56 -> 20  60 -> 16  ].
2 | network_0/router_level3_2 | Assigning VC 0 at output 8 to VC 0 at input 2.
2 | network_0/router_level3_2 | Assigning VC 0 at output 9 to VC 0 at input 3.
2 | network_0/router_level3_2 | Assigning VC 0 at output 15 to VC 0 at input 4.
2 | network_0/router_level3_2 | Completed VC allocation for VC 0 at input 2 (front: 8).
2 | network_0/router_level3_2 |   Acquiring assigned VC 0 at output 8.
2 | network_0/router_level3_2/buf_2/vc_0 | Changing state from vc_alloc to active.
2 | network_0/router_level3_2 | Completed VC allocation for VC 0 at input 3 (front: 9).
2 | network_0/router_level3_2 |   Acquiring assigned VC 0 at output 9.
2 | network_0/router_level3_2/buf_3/vc_0 | Changing state from vc_alloc to active.
2 | network_0/router_level3_2 | Completed VC allocation for VC 0 at input 4 (front: 10).
2 | network_0/router_level3_2 |   Acquiring assigned VC 0 at output 15.
2 | network_0/router_level3_2/buf_4/vc_0 | Changing state from vc_alloc to active.
3 | network_0/router_level3_1 | Beginning VC allocation for VC 0 at input 5 (front: 5).
3 | network_0/router_level3_1 |   VC 0 at output 15 is in use by VC 0 at input 3 (front flit: 3).
3 | network_0/router_level3_1 |   Requesting VC 1 at output 15 (in_pri: 0, out_pri: 0).
3 | network_0/router_level3_1 |   Requesting VC 2 at output 15 (in_pri: 0, out_pri: 0).
3 | network_0/router_level3_1 |   Requesting VC 3 at output 15 (in_pri: 0, out_pri: 0).
3 | network_0/router_level3_1 | Beginning VC allocation for VC 0 at input 7 (front: 7).
3 | network_0/router_level3_1 |   VC 0 at output 13 is in use by VC 0 at input 0 (front flit: 1).
3 | network_0/router_level3_1 |   Requesting VC 1 at output 13 (in_pri: 0, out_pri: 0).
3 | network_0/router_level3_1 |   Requesting VC 2 at output 13 (in_pri: 0, out_pri: 0).
3 | network_0/router_level3_1 |   Requesting VC 3 at output 13 (in_pri: 0, out_pri: 0).
3 | network_0/router_level3_1/vc_allocator | Input requests = [ 5 -> [ 44@0 45@0 46@0 47@0 ]  17 -> [ 44@0 45@0 46@0 47@0 ]  20 -> [ 61@0 62@0 63@0 ]  21 -> [ 57@0 58@0 59@0 ]  25 -> [ 40@0 41@0 42@0 43@0 ]  28 -> [ 53@0 54@0 55@0 ]  ], output requests = [ 40 -> [ 25@0 ]  41 -> [ 25@0 ]  42 -> [ 25@0 ]  43 -> [ 25@0 ]  44 -> [ 5@0 17@0 ]  45 -> [ 5@0 17@0 ]  46 -> [ 5@0 17@0 ]  47 -> [ 5@0 17@0 ]  53 -> [ 28@0 ]  54 -> [ 28@0 ]  55 -> [ 28@0 ]  57 -> [ 21@0 ]  58 -> [ 21@0 ]  59 -> [ 21@0 ]  61 -> [ 20@0 ]  62 -> [ 20@0 ]  63 -> [ 20@0 ]  ].
3 | network_0/router_level3_1/vc_allocator | Input grants = [ 5 -> 44  20 -> 61  21 -> 57  25 -> 40  28 -> 53  ], output grants = [ 40 -> 25  44 -> 5  53 -> 28  57 -> 21  61 -> 20  ].
3 | network_0/router_level3_1 | Assigning VC 1 at output 15 to VC 0 at input 5.
3 | network_0/router_level3_1 | Assigning VC 1 at output 13 to VC 0 at input 7.
3 | network_0/router_level3_1 | Beginning switch allocation for VC 0 at input 0 (front: 1).
3 | network_0/router_level3_1 |   Requesting output 13.0 (non-spec, pri: 0).
3 | network_0/router_level3_1 | Beginning switch allocation for VC 0 at input 1 (front: 2).
3 | network_0/router_level3_1 |   Requesting output 9.0 (non-spec, pri: 0).
3 | network_0/router_level3_1 | Beginning switch allocation for VC 0 at input 3 (front: 3).
3 | network_0/router_level3_1 |   Requesting output 15.0 (non-spec, pri: 0).
3 | network_0/router_level3_1 | Beginning switch allocation for VC 0 at input 4 (front: 4).
3 | network_0/router_level3_1 |   Requesting output 14.0 (non-spec, pri: 0).
3 | network_0/router_level3_1 | Beginning switch allocation for VC 0 at input 6 (front: 6).
3 | network_0/router_level3_1 |   Requesting output 12.0 (non-spec, pri: 0).
3 | network_0/router_level3_1/sw_allocator | Input requests = [ 0 -> [ 13@0 ]  1 -> [ 9@0 ]  3 -> [ 15@0 ]  4 -> [ 14@0 ]  6 -> [ 12@0 ]  ], output requests = [ 9 -> [ 1@0 ]  12 -> [ 6@0 ]  13 -> [ 0@0 ]  14 -> [ 4@0 ]  15 -> [ 3@0 ]  ].
3 | network_0/router_level3_1/sw_allocator | Input grants = [ 0 -> 13  1 -> 9  3 -> 15  4 -> 14  6 -> 12  ], output grants = [ 9 -> 1  12 -> 6  13 -> 0  14 -> 4  15 -> 3  ].
3 | network_0/router_level3_1 | Assigning output 13.0 to VC 0 at input 0.0.
3 | network_0/router_level3_1 | Assigning output 9.0 to VC 0 at input 1.0.
3 | network_0/router_level3_1 | Assigning output 15.0 to VC 0 at input 3.0.
3 | network_0/router_level3_1 | Assigning output 14.0 to VC 0 at input 4.0.
3 | network_0/router_level3_1 | Assigning output 12.0 to VC 0 at input 6.0.
3 | network_0/router_level3_1 | Completed VC allocation for VC 0 at input 5 (front: 5).
3 | network_0/router_level3_1 |   Acquiring assigned VC 1 at output 15.
3 | network_0/router_level3_1/buf_5/vc_0 | Changing state from vc_alloc to active.
3 | network_0/router_level3_1 | Completed VC allocation for VC 0 at input 7 (front: 7).
3 | network_0/router_level3_1 |   Acquiring assigned VC 1 at output 13.
3 | network_0/router_level3_1/buf_7/vc_0 | Changing state from vc_alloc to active.
3 | network_0/router_level3_1 | Completed switch allocation for VC 0 at input 0 (front: 1).
3 | network_0/router_level3_1 |   Scheduling switch connection from input 0.0 to output 13.0.
3 | network_0/router_level3_1 | Updating lookahead routing information for flit 1.
3 | network_0/router_level3_1 | Completed switch allocation for VC 0 at input 1 (front: 2).
3 | network_0/router_level3_1 |   Scheduling switch connection from input 1.0 to output 9.0.
3 | network_0/router_level3_1 | Updating lookahead routing information for flit 2.
3 | network_0/router_level3_1 | Completed switch allocation for VC 0 at input 3 (front: 3).
3 | network_0/router_level3_1 |   Scheduling switch connection from input 3.0 to output 15.0.
3 | network_0/router_level3_1 | Updating lookahead routing information for flit 3.
3 | network_0/router_level3_1 | Completed switch allocation for VC 0 at input 4 (front: 4).
3 | network_0/router_level3_1 |   Scheduling switch connection from input 4.0 to output 14.0.
3 | network_0/router_level3_1 | Updating lookahead routing information for flit 4.
3 | network_0/router_level3_1 | Completed switch allocation for VC 0 at input 6 (front: 6).
3 | network_0/router_level3_1 |   Scheduling switch connection from input 6.0 to output 12.0.
3 | network_0/router_level3_1 | Updating lookahead routing information for flit 6.
3 | network_0/router_level3_2 | Beginning switch allocation for VC 0 at input 2 (front: 8).
3 | network_0/router_level3_2 |   Requesting output 8.0 (non-spec, pri: 0).
3 | network_0/router_level3_2 | Beginning switch allocation for VC 0 at input 3 (front: 9).
3 | network_0/router_level3_2 |   Requesting output 9.0 (non-spec, pri: 0).
3 | network_0/router_level3_2 | Beginning switch allocation for VC 0 at input 4 (front: 10).
3 | network_0/router_level3_2 |   Requesting output 15.0 (non-spec, pri: 0).
3 | network_0/router_level3_2/sw_allocator | Input requests = [ 2 -> [ 8@0 ]  3 -> [ 9@0 ]  4 -> [ 15@0 ]  5 -> [ 14@0 ]  7 -> [ 11@0 ]  ], output requests = [ 8 -> [ 2@0 ]  9 -> [ 3@0 ]  11 -> [ 7@0 ]  14 -> [ 5@0 ]  15 -> [ 4@0 ]  ].
3 | network_0/router_level3_2/sw_allocator | Input grants = [ 2 -> 8  3 -> 9  4 -> 15  5 -> 14  7 -> 11  ], output grants = [ 8 -> 2  9 -> 3  11 -> 7  14 -> 5  15 -> 4  ].
3 | network_0/router_level3_2 | Assigning output 8.0 to VC 0 at input 2.0.
3 | network_0/router_level3_2 | Assigning output 9.0 to VC 0 at input 3.0.
3 | network_0/router_level3_2 | Assigning output 15.0 to VC 0 at input 4.0.
3 | network_0/router_level3_2 | Completed switch allocation for VC 0 at input 2 (front: 8).
3 | network_0/router_level3_2 |   Scheduling switch connection from input 2.0 to output 8.0.
3 | network_0/router_level3_2 | Updating lookahead routing information for flit 8.
3 | network_0/router_level3_2 | Completed switch allocation for VC 0 at input 3 (front: 9).
3 | network_0/router_level3_2 |   Scheduling switch connection from input 3.0 to output 9.0.
3 | network_0/router_level3_2 | Updating lookahead routing information for flit 9.
3 | network_0/router_level3_2 | Completed switch allocation for VC 0 at input 4 (front: 10).
3 | network_0/router_level3_2 |   Scheduling switch connection from input 4.0 to output 15.0.
3 | network_0/router_level3_2 | Updating lookahead routing information for flit 10.
4 | network_0/router_level3_1 | Beginning switch allocation for VC 0 at input 5 (front: 5).
4 | network_0/router_level3_1 |   Requesting output 15.0 (non-spec, pri: 0).
4 | network_0/router_level3_1 | Beginning switch allocation for VC 0 at input 7 (front: 7).
4 | network_0/router_level3_1 |   Requesting output 13.0 (non-spec, pri: 0).
4 | network_0/router_level3_1/sw_allocator | Input requests = [ 1 -> [ 11@0 ]  5 -> [ 14@0 15@0 ]  6 -> [ 10@0 ]  7 -> [ 13@0 ]  ], output requests = [ 10 -> [ 6@0 ]  11 -> [ 1@0 ]  13 -> [ 7@0 ]  14 -> [ 5@0 ]  15 -> [ 5@0 ]  ].
4 | network_0/router_level3_1/sw_allocator | Input grants = [ 1 -> 11  5 -> 14  6 -> 10  7 -> 13  ], output grants = [ 10 -> 6  11 -> 1  13 -> 7  14 -> 5  ].
4 | network_0/router_level3_1 | Switch allocation failed for VC 0 at input 5: Granted to VC 1.
4 | network_0/router_level3_1 | Assigning output 13.0 to VC 0 at input 7.0.
4 | network_0/router_level3_1 | Beginning crossbar traversal for flit 1 from input 0.0 to output 13.0.
4 | network_0/router_level3_1 | Beginning crossbar traversal for flit 2 from input 1.0 to output 9.0.
4 | network_0/router_level3_1 | Beginning crossbar traversal for flit 3 from input 3.0 to output 15.0.
4 | network_0/router_level3_1 | Beginning crossbar traversal for flit 4 from input 4.0 to output 14.0.
4 | network_0/router_level3_1 | Beginning crossbar traversal for flit 6 from input 6.0 to output 12.0.
4 | network_0/router_level3_1 | Completed switch allocation for VC 0 at input 5 (front: 5).
4 | network_0/router_level3_1 |   No output port allocated.
4 | network_0/router_level3_1 | Completed switch allocation for VC 0 at input 7 (front: 7).
4 | network_0/router_level3_1 |   Scheduling switch connection from input 7.0 to output 13.0.
4 | network_0/router_level3_1 | Updating lookahead routing information for flit 7.
4 | network_0/router_level3_1 | Completed crossbar traversal for flit 1 from input 0.0 to output 13.0.
4 | network_0/router_level3_1 | Buffering flit 1 at output 13.
4 | network_0/router_level3_1 | Completed crossbar traversal for flit 2 from input 1.0 to output 9.0.
4 | network_0/router_level3_1 | Buffering flit 2 at output 9.
4 | network_0/router_level3_1 | Completed crossbar traversal for flit 3 from input 3.0 to output 15.0.
4 | network_0/router_level3_1 | Buffering flit 3 at output 15.
4 | network_0/router_level3_1 | Completed crossbar traversal for flit 4 from input 4.0 to output 14.0.
4 | network_0/router_level3_1 | Buffering flit 4 at output 14.
4 | network_0/router_level3_1 | Completed crossbar traversal for flit 6 from input 6.0 to output 12.0.
4 | network_0/router_level3_1 | Buffering flit 6 at output 12.
4 | network_0/router_level3_2 | Beginning crossbar traversal for flit 8 from input 2.0 to output 8.0.
4 | network_0/router_level3_2 | Beginning crossbar traversal for flit 9 from input 3.0 to output 9.0.
4 | network_0/router_level3_2 | Beginning crossbar traversal for flit 10 from input 4.0 to output 15.0.
4 | network_0/router_level3_2 | Completed crossbar traversal for flit 8 from input 2.0 to output 8.0.
4 | network_0/router_level3_2 | Buffering flit 8 at output 8.
4 | network_0/router_level3_2 | Completed crossbar traversal for flit 9 from input 3.0 to output 9.0.
4 | network_0/router_level3_2 | Buffering flit 9 at output 9.
4 | network_0/router_level3_2 | Completed crossbar traversal for flit 10 from input 4.0 to output 15.0.
4 | network_0/router_level3_2 | Buffering flit 10 at output 15.
4 | network_0/router_level3_1 | Sending flit 2 to channel at output 9.
4 | network_0/router_level3_1 | Sending flit 6 to channel at output 12.
4 | network_0/router_level3_1 | Sending flit 1 to channel at output 13.
4 | network_0/router_level3_1 | Sending flit 4 to channel at output 14.
4 | network_0/router_level3_1 | Sending flit 3 to channel at output 15.
4 | network_0/router_level3_2 | Sending flit 8 to channel at output 8.
4 | network_0/router_level3_2 | Sending flit 9 to channel at output 9.
4 | network_0/router_level3_2 | Sending flit 10 to channel at output 15.
5 | network_0/network_0_fchan_20489 | Beginning channel traversal for flit 2 with delay 1.
5 | network_0/network_0_fchan_20492 | Beginning channel traversal for flit 6 with delay 1.
5 | network_0/network_0_fchan_20493 | Beginning channel traversal for flit 1 with delay 1.
5 | network_0/network_0_fchan_20494 | Beginning channel traversal for flit 4 with delay 1.
5 | network_0/network_0_fchan_20495 | Beginning channel traversal for flit 3 with delay 1.
5 | network_0/network_0_fchan_20496 | Beginning channel traversal for flit 8 with delay 1.
5 | network_0/network_0_fchan_20497 | Beginning channel traversal for flit 9 with delay 1.
5 | network_0/network_0_fchan_20503 | Beginning channel traversal for flit 10 with delay 1.
5 | network_0/router_level3_1 | Beginning switch allocation for VC 0 at input 5 (front: 5).
5 | network_0/router_level3_1 |   Requesting output 15.0 (non-spec, pri: 0).
5 | network_0/router_level3_1/sw_allocator | Input requests = [ 0 -> [ 8@0 ]  4 -> [ 11@0 ]  5 -> [ 15@0 ]  ], output requests = [ 8 -> [ 0@0 ]  11 -> [ 4@0 ]  15 -> [ 5@0 ]  ].
5 | network_0/router_level3_1/sw_allocator | Input grants = [ 0 -> 8  4 -> 11  5 -> 15  ], output grants = [ 8 -> 0  11 -> 4  15 -> 5  ].
5 | network_0/router_level3_1 | Assigning output 15.0 to VC 0 at input 5.0.
5 | network_0/router_level3_1 | Beginning crossbar traversal for flit 7 from input 7.0 to output 13.0.
5 | network_0/router_level3_1 | Completed switch allocation for VC 0 at input 5 (front: 5).
5 | network_0/router_level3_1 |   Scheduling switch connection from input 5.0 to output 15.0.
5 | network_0/router_level3_1 | Updating lookahead routing information for flit 5.
5 | network_0/router_level3_1 | Completed crossbar traversal for flit 7 from input 7.0 to output 13.0.
5 | network_0/router_level3_1 | Buffering flit 7 at output 13.
5 | network_0/network_0_fchan_20489 | Completed channel traversal for flit 2.
5 | network_0/network_0_fchan_20492 | Completed channel traversal for flit 6.
5 | network_0/network_0_fchan_20493 | Completed channel traversal for flit 1.
5 | network_0/network_0_fchan_20494 | Completed channel traversal for flit 4.
5 | network_0/network_0_fchan_20495 | Completed channel traversal for flit 3.
5 | network_0/network_0_fchan_20496 | Completed channel traversal for flit 8.
5 | network_0/network_0_fchan_20497 | Completed channel traversal for flit 9.
5 | network_0/network_0_fchan_20503 | Completed channel traversal for flit 10.
5 | network_0/router_level3_1 | Sending flit 7 to channel at output 13.
6 | network_0/network_0_fchan_20493 | Beginning channel traversal for flit 7 with delay 1.
6 | network_0/router_level2_0 | Received flit 8 from channel at input 2.
6 | network_0/router_level2_1 | Received flit 2 from channel at input 1.
6 | network_0/router_level2_1 | Received flit 9 from channel at input 2.
6 | network_0/router_level2_4 | Received flit 6 from channel at input 1.
6 | network_0/router_level2_5 | Received flit 1 from channel at input 1.
6 | network_0/router_level2_6 | Received flit 4 from channel at input 1.
6 | network_0/router_level2_7 | Received flit 3 from channel at input 1.
6 | network_0/router_level2_7 | Received flit 10 from channel at input 2.
6 | network_0/router_level2_0 | Adding flit 8 to VC 0 at input 2 (state: idle, empty).
6 | network_0/router_level2_0 | Using precomputed lookahead routing information for VC 0 at input 2 (front: 8).
6 | network_0/router_level2_0/buf_2/vc_0 | Changing state from idle to vc_alloc.
6 | network_0/router_level2_0 | Beginning VC allocation for VC 0 at input 2 (front: 8).
6 | network_0/router_level2_0 |   Requesting VC 0 at output 10 (in_pri: 0, out_pri: 0).
6 | network_0/router_level2_0 |   Requesting VC 1 at output 10 (in_pri: 0, out_pri: 0).
6 | network_0/router_level2_0 |   Requesting VC 2 at output 10 (in_pri: 0, out_pri: 0).
6 | network_0/router_level2_0 |   Requesting VC 3 at output 10 (in_pri: 0, out_pri: 0).
6 | network_0/router_level2_0/vc_allocator | Input requests = [ 8 -> [ 40@0 41@0 42@0 43@0 ]  20 -> [ 44@0 45@0 46@0 47@0 ]  24 -> [ 56@0 57@0 58@0 59@0 ]  ], output requests = [ 40 -> [ 8@0 ]  41 -> [ 8@0 ]  42 -> [ 8@0 ]  43 -> [ 8@0 ]  44 -> [ 20@0 ]  45 -> [ 20@0 ]  46 -> [ 20@0 ]  47 -> [ 20@0 ]  56 -> [ 24@0 ]  57 -> [ 24@0 ]  58 -> [ 24@0 ]  59 -> [ 24@0 ]  ].
6 | network_0/router_level2_0/vc_allocator | Input grants = [ 8 -> 40  20 -> 44  24 -> 56  ], output grants = [ 40 -> 8  44 -> 20  56 -> 24  ].
6 | network_0/router_level2_0 | Assigning VC 0 at output 10 to VC 0 at input 2.
6 | network_0/router_level2_0 | Completed VC allocation for VC 0 at input 2 (front: 8).
6 | network_0/router_level2_0 |   Acquiring assigned VC 0 at output 10.
6 | network_0/router_level2_0/buf_2/vc_0 | Changing state from vc_alloc to active.
6 | network_0/router_level2_1 | Adding flit 2 to VC 0 at input 1 (state: idle, empty).
6 | network_0/router_level2_1 | Using precomputed lookahead routing information for VC 0 at input 1 (front: 2).
6 | network_0/router_level2_1/buf_1/vc_0 | Changing state from idle to vc_alloc.
6 | network_0/router_level2_1 | Adding flit 9 to VC 0 at input 2 (state: idle, empty).
6 | network_0/router_level2_1 | Using precomputed lookahead routing information for VC 0 at input 2 (front: 9).
6 | network_0/router_level2_1/buf_2/vc_0 | Changing state from idle to vc_alloc.
6 | network_0/router_level2_1 | Beginning VC allocation for VC 0 at input 1 (front: 2).
6 | network_0/router_level2_1 |   Requesting VC 0 at output 8 (in_pri: 0, out_pri: 0).
6 | network_0/router_level2_1 |   Requesting VC 1 at output 8 (in_pri: 0, out_pri: 0).
6 | network_0/router_level2_1 |   Requesting VC 2 at output 8 (in_pri: 0, out_pri: 0).
6 | network_0/router_level2_1 |   Requesting VC 3 at output 8 (in_pri: 0, out_pri: 0).
6 | network_0/router_level2_1 | Beginning VC allocation for VC 0 at input 2 (front: 9).
6 | network_0/router_level2_1 |   Requesting VC 0 at output 8 (in_pri: 0, out_pri: 0).
6 | network_0/router_level2_1 |   Requesting VC 1 at output 8 (in_pri: 0, out_pri: 0).
6 | network_0/router_level2_1 |   Requesting VC 2 at output 8 (in_pri: 0, out_pri: 0).
6 | network_0/router_level2_1 |   Requesting VC 3 at output 8 (in_pri: 0, out_pri: 0).
6 | network_0/router_level2_1/vc_allocator | Input requests = [ 4 -> [ 32@0 33@0 34@0 35@0 ]  8 -> [ 32@0 33@0 34@0 35@0 ]  12 -> [ 36@0 37@0 38@0 39@0 ]  20 -> [ 48@0 49@0 50@0 51@0 ]  24 -> [ 44@0 45@0 46@0 47@0 ]  28 -> [ 32@0 33@0 34@0 35@0 ]  ], output requests = [ 32 -> [ 4@0 8@0 28@0 ]  33 -> [ 4@0 8@0 28@0 ]  34 -> [ 4@0 8@0 28@0 ]  35 -> [ 4@0 8@0 28@0 ]  36 -> [ 12@0 ]  37 -> [ 12@0 ]  38 -> [ 12@0 ]  39 -> [ 12@0 ]  44 -> [ 24@0 ]  45 -> [ 24@0 ]  46 -> [ 24@0 ]  47 -> [ 24@0 ]  48 -> [ 20@0 ]  49 -> [ 20@0 ]  50 -> [ 20@0 ]  51 -> [ 20@0 ]  ].
6 | network_0/router_level2_1/vc_allocator | Input grants = [ 4 -> 32  12 -> 36  20 -> 48  24 -> 44  ], output grants = [ 32 -> 4  36 -> 12  44 -> 24  48 -> 20  ].
6 | network_0/router_level2_1 | Assigning VC 0 at output 8 to VC 0 at input 1.
6 | network_0/router_level2_1 | VC allocation failed for VC 0 at input 2.
6 | network_0/router_level2_1 | Completed VC allocation for VC 0 at input 1 (front: 2).
6 | network_0/router_level2_1 |   Acquiring assigned VC 0 at output 8.
6 | network_0/router_level2_1/buf_1/vc_0 | Changing state from vc_alloc to active.
6 | network_0/router_level2_1 | Completed VC allocation for VC 0 at input 2 (front: 9).
6 | network_0/router_level2_1 |   No output VC allocated.
6 | network_0/router_level2_4 | Adding flit 6 to VC 0 at input 1 (state: idle, empty).
6 | network_0/router_level2_4 | Using precomputed lookahead routing information for VC 0 at input 1 (front: 6).
6 | network_0/router_level2_4/buf_1/vc_0 | Changing state from idle to vc_alloc.
6 | network_0/router_level2_4 | Beginning VC allocation for VC 0 at input 1 (front: 6).
6 | network_0/router_level2_4 |   Requesting VC 0 at output 10 (in_pri: 0, out_pri: 0).
6 | network_0/router_level2_4 |   Requesting VC 1 at output 10 (in_pri: 0, out_pri: 0).
6 | network_0/router_level2_4 |   Requesting VC 2 at output 10 (in_pri: 0, out_pri: 0).
6 | network_0/router_level2_4 |   Requesting VC 3 at output 10 (in_pri: 0, out_pri: 0).
6 | network_0/router_level2_4/vc_allocator | Input requests = [ 4 -> [ 40@0 41@0 42@0 43@0 ]  20 -> [ 60@0 61@0 62@0 63@0 ]  ], output requests = [ 40 -> [ 4@0 ]  41 -> [ 4@0 ]  42 -> [ 4@0 ]  43 -> [ 4@0 ]  60 -> [ 20@0 ]  61 -> [ 20@0 ]  62 -> [ 20@0 ]  63 -> [ 20@0 ]  ].
6 | network_0/router_level2_4/vc_allocator | Input grants = [ 4 -> 40  20 -> 60  ], output grants = [ 40 -> 4  60 -> 20  ].
6 | network_0/router_level2_4 | Assigning VC 0 at output 10 to VC 0 at input 1.
6 | network_0/router_level2_4 | Completed VC allocation for VC 0 at input 1 (front: 6).
6 | network_0/router_level2_4 |   Acquiring assigned VC 0 at output 10.
6 | network_0/router_level2_4/buf_1/vc_0 | Changing state from vc_alloc to active.
6 | network_0/router_level2_5 | Adding flit 1 to VC 0 at input 1 (state: idle, empty).
6 | network_0/router_level2_5 | Using precomputed lookahead routing information for VC 0 at input 1 (front: 1).
6 | network_0/router_level2_5/buf_1/vc_0 | Changing state from idle to vc_alloc.
6 | network_0/router_level2_5 | Beginning VC allocation for VC 0 at input 1 (front: 1).
6 | network_0/router_level2_5 |   Requesting VC 0 at output 13 (in_pri: 0, out_pri: 0).
6 | network_0/router_level2_5 |   Requesting VC 1 at output 13 (in_pri: 0, out_pri: 0).
6 | network_0/router_level2_5 |   Requesting VC 2 at output 13 (in_pri: 0, out_pri: 0).
6 | network_0/router_level2_5 |   Requesting VC 3 at output 13 (in_pri: 0, out_pri: 0).
6 | network_0/router_level2_5/vc_allocator | Input requests = [ 4 -> [ 52@0 53@0 54@0 55@0 ]  ], output requests = [ 52 -> [ 4@0 ]  53 -> [ 4@0 ]  54 -> [ 4@0 ]  55 -> [ 4@0 ]  ].
6 | network_0/router_level2_5/vc_allocator | Input grants = [ 4 -> 52  ], output grants = [ 52 -> 4  ].
6 | network_0/router_level2_5 | Assigning VC 0 at output 13 to VC 0 at input 1.
6 | network_0/router_level2_5 | Completed VC allocation for VC 0 at input 1 (front: 1).
6 | network_0/router_level2_5 |   Acquiring assigned VC 0 at output 13.
6 | network_0/router_level2_5/buf_1/vc_0 | Changing state from vc_alloc to active.
6 | network_0/router_level2_6 | Adding flit 4 to VC 0 at input 1 (state: idle, empty).
6 | network_0/router_level2_6 | Using precomputed lookahead routing information for VC 0 at input 1 (front: 4).
6 | network_0/router_level2_6/buf_1/vc_0 | Changing state from idle to vc_alloc.
6 | network_0/router_level2_6 | Beginning VC allocation for VC 0 at input 1 (front: 4).
6 | network_0/router_level2_6 |   Requesting VC 0 at output 8 (in_pri: 0, out_pri: 0).
6 | network_0/router_level2_6 |   Requesting VC 1 at output 8 (in_pri: 0, out_pri: 0).
6 | network_0/router_level2_6 |   Requesting VC 2 at output 8 (in_pri: 0, out_pri: 0).
6 | network_0/router_level2_6 |   Requesting VC 3 at output 8 (in_pri: 0, out_pri: 0).
6 | network_0/router_level2_6/vc_allocator | Input requests = [ 4 -> [ 32@0 33@0 34@0 35@0 ]  8 -> [ 32@0 33@0 34@0 35@0 ]  12 -> [ 44@0 45@0 46@0 47@0 ]  28 -> [ 52@0 53@0 54@0 55@0 ]  ], output requests = [ 32 -> [ 4@0 8@0 ]  33 -> [ 4@0 8@0 ]  34 -> [ 4@0 8@0 ]  35 -> [ 4@0 8@0 ]  44 -> [ 12@0 ]  45 -> [ 12@0 ]  46 -> [ 12@0 ]  47 -> [ 12@0 ]  52 -> [ 28@0 ]  53 -> [ 28@0 ]  54 -> [ 28@0 ]  55 -> [ 28@0 ]  ].
6 | network_0/router_level2_6/vc_allocator | Input grants = [ 4 -> 32  12 -> 44  28 -> 52  ], output grants = [ 32 -> 4  44 -> 12  52 -> 28  ].
6 | network_0/router_level2_6 | Assigning VC 0 at output 8 to VC 0 at input 1.
6 | network_0/router_level2_6 | Completed VC allocation for VC 0 at input 1 (front: 4).
6 | network_0/router_level2_6 |   Acquiring assigned VC 0 at output 8.
6 | network_0/router_level2_6/buf_1/vc_0 | Changing state from vc_alloc to active.
6 | network_0/router_level2_7 | Adding flit 3 to VC 0 at input 1 (state: idle, empty).
6 | network_0/router_level2_7 | Using precomputed lookahead routing information for VC 0 at input 1 (front: 3).
6 | network_0/router_level2_7/buf_1/vc_0 | Changing state from idle to vc_alloc.
6 | network_0/router_level2_7 | Adding flit 10 to VC 0 at input 2 (state: idle, empty).
6 | network_0/router_level2_7 | Using precomputed lookahead routing information for VC 0 at input 2 (front: 10).
6 | network_0/router_level2_7/buf_2/vc_0 | Changing state from idle to vc_alloc.
6 | network_0/router_level2_7 | Beginning VC allocation for VC 0 at input 1 (front: 3).
6 | network_0/router_level2_7 |   Requesting VC 0 at output 14 (in_pri: 0, out_pri: 0).
6 | network_0/router_level2_7 |   Requesting VC 1 at output 14 (in_pri: 0, out_pri: 0).
6 | network_0/router_level2_7 |   Requesting VC 2 at output 14 (in_pri: 0, out_pri: 0).
6 | network_0/router_level2_7 |   Requesting VC 3 at output 14 (in_pri: 0, out_pri: 0).
6 | network_0/router_level2_7 | Beginning VC allocation for VC 0 at input 2 (front: 10).
6 | network_0/router_level2_7 |   Requesting VC 0 at output 12 (in_pri: 0, out_pri: 0).
6 | network_0/router_level2_7 |   Requesting VC 1 at output 12 (in_pri: 0, out_pri: 0).
6 | network_0/router_level2_7 |   Requesting VC 2 at output 12 (in_pri: 0, out_pri: 0).
6 | network_0/router_level2_7 |   Requesting VC 3 at output 12 (in_pri: 0, out_pri: 0).
6 | network_0/router_level2_7/vc_allocator | Input requests = [ 4 -> [ 56@0 57@0 58@0 59@0 ]  8 -> [ 48@0 49@0 50@0 51@0 ]  24 -> [ 48@0 49@0 50@0 51@0 ]  ], output requests = [ 48 -> [ 8@0 24@0 ]  49 -> [ 8@0 24@0 ]  50 -> [ 8@0 24@0 ]  51 -> [ 8@0 24@0 ]  56 -> [ 4@0 ]  57 -> [ 4@0 ]  58 -> [ 4@0 ]  59 -> [ 4@0 ]  ].
6 | network_0/router_level2_7/vc_allocator | Input grants = [ 4 -> 56  8 -> 48  ], output grants = [ 48 -> 8  56 -> 4  ].
6 | network_0/router_level2_7 | Assigning VC 0 at output 14 to VC 0 at input 1.
6 | network_0/router_level2_7 | Assigning VC 0 at output 12 to VC 0 at input 2.
6 | network_0/router_level2_7 | Completed VC allocation for VC 0 at input 1 (front: 3).
6 | network_0/router_level2_7 |   Acquiring assigned VC 0 at output 14.
6 | network_0/router_level2_7/buf_1/vc_0 | Changing state from vc_alloc to active.
6 | network_0/router_level2_7 | Completed VC allocation for VC 0 at input 2 (front: 10).
6 | network_0/router_level2_7 |   Acquiring assigned VC 0 at output 12.
6 | network_0/router_level2_7/buf_2/vc_0 | Changing state from vc_alloc to active.
6 | network_0/router_level3_1 | Beginning crossbar traversal for flit 5 from input 5.0 to output 15.0.
6 | network_0/router_level3_1 | Completed crossbar traversal for flit 5 from input 5.0 to output 15.0.
6 | network_0/router_level3_1 | Buffering flit 5 at output 15.
6 | network_0/network_0_fchan_20493 | Completed channel traversal for flit 7.
6 | network_0/router_level3_1 | Sending flit 5 to channel at output 15.
7 | network_0/network_0_fchan_20495 | Beginning channel traversal for flit 5 with delay 1.
7 | network_0/router_level2_5 | Received flit 7 from channel at input 1.
7 | network_0/router_level2_0 | Beginning switch allocation for VC 0 at input 2 (front: 8).
7 | network_0/router_level2_0 |   Requesting output 10.0 (non-spec, pri: 0).
7 | network_0/router_level2_0/sw_allocator | Input requests = [ 2 -> [ 10@0 ]  5 -> [ 11@0 ]  6 -> [ 14@0 ]  ], output requests = [ 10 -> [ 2@0 ]  11 -> [ 5@0 ]  14 -> [ 6@0 ]  ].
7 | network_0/router_level2_0/sw_allocator | Input grants = [ 2 -> 10  5 -> 11  6 -> 14  ], output grants = [ 10 -> 2  11 -> 5  14 -> 6  ].
7 | network_0/router_level2_0 | Assigning output 10.0 to VC 0 at input 2.0.
7 | network_0/router_level2_0 | Completed switch allocation for VC 0 at input 2 (front: 8).
7 | network_0/router_level2_0 |   Scheduling switch connection from input 2.0 to output 10.0.
7 | network_0/router_level2_0 | Updating lookahead routing information for flit 8.
7 | network_0/router_level2_1 | Beginning VC allocation for VC 0 at input 2 (front: 9).
7 | network_0/router_level2_1 |   VC 0 at output 8 is in use by VC 0 at input 1 (front flit: 2).
7 | network_0/router_level2_1 |   Requesting VC 1 at output 8 (in_pri: 0, out_pri: 0).
7 | network_0/router_level2_1 |   Requesting VC 2 at output 8 (in_pri: 0, out_pri: 0).
7 | network_0/router_level2_1 |   Requesting VC 3 at output 8 (in_pri: 0, out_pri: 0).
7 | network_0/router_level2_1/vc_allocator | Input requests = [ 0 -> [ 45@0 46@0 47@0 ]  8 -> [ 33@0 34@0 35@0 ]  13 -> [ 40@0 41@0 42@0 43@0 ]  21 -> [ 40@0 41@0 42@0 43@0 ]  25 -> [ 33@0 34@0 35@0 ]  28 -> [ 33@0 34@0 35@0 ]  ], output requests = [ 33 -> [ 8@0 25@0 28@0 ]  34 -> [ 8@0 25@0 28@0 ]  35 -> [ 8@0 25@0 28@0 ]  40 -> [ 13@0 21@0 ]  41 -> [ 13@0 21@0 ]  42 -> [ 13@0 21@0 ]  43 -> [ 13@0 21@0 ]  45 -> [ 0@0 ]  46 -> [ 0@0 ]  47 -> [ 0@0 ]  ].
7 | network_0/router_level2_1/vc_allocator | Input grants = [ 0 -> 45  8 -> 33  13 -> 40  ], output grants = [ 33 -> 8  40 -> 13  45 -> 0  ].
7 | network_0/router_level2_1 | Assigning VC 1 at output 8 to VC 0 at input 2.
7 | network_0/router_level2_1 | Beginning switch allocation for VC 0 at input 1 (front: 2).
7 | network_0/router_level2_1 |   Requesting output 8.0 (non-spec, pri: 0).
7 | network_0/router_level2_1/sw_allocator | Input requests = [ 1 -> [ 8@0 ]  3 -> [ 9@0 ]  5 -> [ 12@0 ]  6 -> [ 11@0 ]  ], output requests = [ 8 -> [ 1@0 ]  9 -> [ 3@0 ]  11 -> [ 6@0 ]  12 -> [ 5@0 ]  ].
7 | network_0/router_level2_1/sw_allocator | Input grants = [ 1 -> 8  3 -> 9  5 -> 12  6 -> 11  ], output grants = [ 8 -> 1  9 -> 3  11 -> 6  12 -> 5  ].
7 | network_0/router_level2_1 | Assigning output 8.0 to VC 0 at input 1.0.
7 | network_0/router_level2_1 | Completed VC allocation for VC 0 at input 2 (front: 9).
7 | network_0/router_level2_1 |   Acquiring assigned VC 1 at output 8.
7 | network_0/router_level2_1/buf_2/vc_0 | Changing state from vc_alloc to active.
7 | network_0/router_level2_1 | Completed switch allocation for VC 0 at input 1 (front: 2).
7 | network_0/router_level2_1 |   Scheduling switch connection from input 1.0 to output 8.0.
7 | network_0/router_level2_1 | Updating lookahead routing information for flit 2.
7 | network_0/router_level2_4 | Beginning switch allocation for VC 0 at input 1 (front: 6).
7 | network_0/router_level2_4 |   Requesting output 10.0 (non-spec, pri: 0).
7 | network_0/router_level2_4/sw_allocator | Input requests = [ 1 -> [ 10@0 ]  5 -> [ 15@0 ]  ], output requests = [ 10 -> [ 1@0 ]  15 -> [ 5@0 ]  ].
7 | network_0/router_level2_4/sw_allocator | Input grants = [ 1 -> 10  5 -> 15  ], output grants = [ 10 -> 1  15 -> 5  ].
7 | network_0/router_level2_4 | Assigning output 10.0 to VC 0 at input 1.0.
7 | network_0/router_level2_4 | Completed switch allocation for VC 0 at input 1 (front: 6).
7 | network_0/router_level2_4 |   Scheduling switch connection from input 1.0 to output 10.0.
7 | network_0/router_level2_4 | Updating lookahead routing information for flit 6.
7 | network_0/router_level2_5 | Adding flit 7 to VC 1 at input 1 (state: idle, empty).
7 | network_0/router_level2_5 | Using precomputed lookahead routing information for VC 1 at input 1 (front: 7).
7 | network_0/router_level2_5/buf_1/vc_1 | Changing state from idle to vc_alloc.
7 | network_0/router_level2_5 | Beginning VC allocation for VC 1 at input 1 (front: 7).
7 | network_0/router_level2_5 |   Requesting VC 0 at output 14 (in_pri: 0, out_pri: 0).
7 | network_0/router_level2_5 |   Requesting VC 1 at output 14 (in_pri: 0, out_pri: 0).
7 | network_0/router_level2_5 |   Requesting VC 2 at output 14 (in_pri: 0, out_pri: 0).
7 | network_0/router_level2_5 |   Requesting VC 3 at output 14 (in_pri: 0, out_pri: 0).
7 | network_0/router_level2_5/vc_allocator | Input requests = [ 0 -> [ 53@0 54@0 55@0 ]  5 -> [ 56@0 57@0 58@0 59@0 ]  8 -> [ 44@0 45@0 46@0 47@0 ]  20 -> [ 40@0 41@0 42@0 43@0 ]  28 -> [ 40@0 41@0 42@0 43@0 ]  ], output requests = [ 40 -> [ 20@0 28@0 ]  41 -> [ 20@0 28@0 ]  42 -> [ 20@0 28@0 ]  43 -> [ 20@0 28@0 ]  44 -> [ 8@0 ]  45 -> [ 8@0 ]  46 -> [ 8@0 ]  47 -> [ 8@0 ]  53 -> [ 0@0 ]  54 -> [ 0@0 ]  55 -> [ 0@0 ]  56 -> [ 5@0 ]  57 -> [ 5@0 ]  58 -> [ 5@0 ]  59 -> [ 5@0 ]  ].
7 | network_0/router_level2_5/vc_allocator | Input grants = [ 0 -> 53  5 -> 56  8 -> 44  20 -> 40  ], output grants = [ 40 -> 20  44 -> 8  53 -> 0  56 -> 5  ].
7 | network_0/router_level2_5 | Assigning VC 0 at output 14 to VC 1 at input 1.
7 | network_0/router_level2_5 | Beginning switch allocation for VC 0 at input 1 (front: 1).
7 | network_0/router_level2_5 |   Requesting output 13.0 (non-spec, pri: 0).
7 | network_0/router_level2_5/sw_allocator | Input requests = [ 1 -> [ 13@0 ]  ], output requests = [ 13 -> [ 1@0 ]  ].
7 | network_0/router_level2_5/sw_allocator | Input grants = [ 1 -> 13  ], output grants = [ 13 -> 1  ].
7 | network_0/router_level2_5 | Assigning output 13.0 to VC 0 at input 1.0.
7 | network_0/router_level2_5 | Completed VC allocation for VC 1 at input 1 (front: 7).
7 | network_0/router_level2_5 |   Acquiring assigned VC 0 at output 14.
7 | network_0/router_level2_5/buf_1/vc_1 | Changing state from vc_alloc to active.
7 | network_0/router_level2_5 | Completed switch allocation for VC 0 at input 1 (front: 1).
7 | network_0/router_level2_5 |   Scheduling switch connection from input 1.0 to output 13.0.
7 | network_0/router_level2_5 | Updating lookahead routing information for flit 1.
7 | network_0/router_level2_6 | Beginning switch allocation for VC 0 at input 1 (front: 4).
7 | network_0/router_level2_6 |   Requesting output 8.0 (non-spec, pri: 0).
7 | network_0/router_level2_6/sw_allocator | Input requests = [ 1 -> [ 8@0 ]  3 -> [ 11@0 ]  7 -> [ 13@0 ]  ], output requests = [ 8 -> [ 1@0 ]  11 -> [ 3@0 ]  13 -> [ 7@0 ]  ].
7 | network_0/router_level2_6/sw_allocator | Input grants = [ 1 -> 8  3 -> 11  7 -> 13  ], output grants = [ 8 -> 1  11 -> 3  13 -> 7  ].
7 | network_0/router_level2_6 | Assigning output 8.0 to VC 0 at input 1.0.
7 | network_0/router_level2_6 | Completed switch allocation for VC 0 at input 1 (front: 4).
7 | network_0/router_level2_6 |   Scheduling switch connection from input 1.0 to output 8.0.
7 | network_0/router_level2_6 | Updating lookahead routing information for flit 4.
7 | network_0/router_level2_7 | Beginning switch allocation for VC 0 at input 1 (front: 3).
7 | network_0/router_level2_7 |   Requesting output 14.0 (non-spec, pri: 0).
7 | network_0/router_level2_7 | Beginning switch allocation for VC 0 at input 2 (front: 10).
7 | network_0/router_level2_7 |   Requesting output 12.0 (non-spec, pri: 0).
7 | network_0/router_level2_7/sw_allocator | Input requests = [ 1 -> [ 14@0 ]  2 -> [ 12@0 ]  ], output requests = [ 12 -> [ 2@0 ]  14 -> [ 1@0 ]  ].
7 | network_0/router_level2_7/sw_allocator | Input grants = [ 1 -> 14  2 -> 12  ], output grants = [ 12 -> 2  14 -> 1  ].
7 | network_0/router_level2_7 | Assigning output 14.0 to VC 0 at input 1.0.
7 | network_0/router_level2_7 | Assigning output 12.0 to VC 0 at input 2.0.
7 | network_0/router_level2_7 | Completed switch allocation for VC 0 at input 1 (front: 3).
7 | network_0/router_level2_7 |   Scheduling switch connection from input 1.0 to output 14.0.
7 | network_0/router_level2_7 | Updating lookahead routing information for flit 3.
7 | network_0/router_level2_7 | Completed switch allocation for VC 0 at input 2 (front: 10).
7 | network_0/router_level2_7 |   Scheduling switch connection from input 2.0 to output 12.0.
7 | network_0/router_level2_7 | Updating lookahead routing information for flit 10.
7 | network_0/network_0_fchan_20495 | Completed channel traversal for flit 5.
8 | network_0/router_level2_7 | Received flit 5 from channel at input 1.
8 | network_0/router_level2_0 | Beginning crossbar traversal for flit 8 from input 2.0 to output 10.0.
8 | network_0/router_level2_0 | Completed crossbar traversal for flit 8 from input 2.0 to output 10.0.
8 | network_0/router_level2_0 | Buffering flit 8 at output 10.
8 | network_0/router_level2_1 | Beginning switch allocation for VC 0 at input 2 (front: 9).
8 | network_0/router_level2_1 |   Requesting output 8.0 (non-spec, pri: 0).
8 | network_0/router_level2_1/sw_allocator | Input requests = [ 0 -> [ 11@0 ]  2 -> [ 8@0 ]  3 -> [ 10@0 ]  ], output requests = [ 8 -> [ 2@0 ]  10 -> [ 3@0 ]  11 -> [ 0@0 ]  ].
8 | network_0/router_level2_1/sw_allocator | Input grants = [ 0 -> 11  2 -> 8  3 -> 10  ], output grants = [ 8 -> 2  10 -> 3  11 -> 0  ].
8 | network_0/router_level2_1 | Assigning output 8.0 to VC 0 at input 2.0.
8 | network_0/router_level2_1 | Beginning crossbar traversal for flit 2 from input 1.0 to output 8.0.
8 | network_0/router_level2_1 | Completed switch allocation for VC 0 at input 2 (front: 9).
8 | network_0/router_level2_1 |   Scheduling switch connection from input 2.0 to output 8.0.
8 | network_0/router_level2_1 | Updating lookahead routing information for flit 9.
8 | network_0/router_level2_1 | Completed crossbar traversal for flit 2 from input 1.0 to output 8.0.
8 | network_0/router_level2_1 | Buffering flit 2 at output 8.
8 | network_0/router_level2_4 | Beginning crossbar traversal for flit 6 from input 1.0 to output 10.0.
8 | network_0/router_level2_4 | Completed crossbar traversal for flit 6 from input 1.0 to output 10.0.
8 | network_0/router_level2_4 | Buffering flit 6 at output 10.
8 | network_0/router_level2_5 | Beginning switch allocation for VC 1 at input 1 (front: 7).
8 | network_0/router_level2_5 |   Requesting output 14.0 (non-spec, pri: 0).
8 | network_0/router_level2_5/sw_allocator | Input requests = [ 0 -> [ 13@0 ]  1 -> [ 14@0 ]  2 -> [ 11@0 ]  5 -> [ 10@0 ]  ], output requests = [ 10 -> [ 5@0 ]  11 -> [ 2@0 ]  13 -> [ 0@0 ]  14 -> [ 1@0 ]  ].
8 | network_0/router_level2_5/sw_allocator | Input grants = [ 0 -> 13  1 -> 14  2 -> 11  5 -> 10  ], output grants = [ 10 -> 5  11 -> 2  13 -> 0  14 -> 1  ].
8 | network_0/router_level2_5 | Assigning output 14.0 to VC 1 at input 1.0.
8 | network_0/router_level2_5 | Beginning crossbar traversal for flit 1 from input 1.0 to output 13.0.
8 | network_0/router_level2_5 | Completed switch allocation for VC 1 at input 1 (front: 7).
8 | network_0/router_level2_5 |   Scheduling switch connection from input 1.0 to output 14.0.
8 | network_0/router_level2_5 | Updating lookahead routing information for flit 7.
8 | network_0/router_level2_5 | Completed crossbar traversal for flit 1 from input 1.0 to output 13.0.
8 | network_0/router_level2_5 | Buffering flit 1 at output 13.
8 | network_0/router_level2_6 | Beginning crossbar traversal for flit 4 from input 1.0 to output 8.0.
8 | network_0/router_level2_6 | Completed crossbar traversal for flit 4 from input 1.0 to output 8.0.
8 | network_0/router_level2_6 | Buffering flit 4 at output 8.
8 | network_0/router_level2_7 | Adding flit 5 to VC 1 at input 1 (state: idle, empty).
8 | network_0/router_level2_7 | Using precomputed lookahead routing information for VC 1 at input 1 (front: 5).
8 | network_0/router_level2_7/buf_1/vc_1 | Changing state from idle to vc_alloc.
8 | network_0/router_level2_7 | Beginning VC allocation for VC 1 at input 1 (front: 5).
8 | network_0/router_level2_7 |   Requesting VC 0 at output 13 (in_pri: 0, out_pri: 0).
8 | network_0/router_level2_7 |   Requesting VC 1 at output 13 (in_pri: 0, out_pri: 0).
8 | network_0/router_level2_7 |   Requesting VC 2 at output 13 (in_pri: 0, out_pri: 0).
8 | network_0/router_level2_7 |   Requesting VC 3 at output 13 (in_pri: 0, out_pri: 0).
8 | network_0/router_level2_7/vc_allocator | Input requests = [ 5 -> [ 52@0 53@0 54@0 55@0 ]  12 -> [ 40@0 41@0 42@0 43@0 ]  17 -> [ 36@0 37@0 38@0 39@0 ]  20 -> [ 32@0 33@0 34@0 35@0 ]  ], output requests = [ 32 -> [ 20@0 ]  33 -> [ 20@0 ]  34 -> [ 20@0 ]  35 -> [ 20@0 ]  36 -> [ 17@0 ]  37 -> [ 17@0 ]  38 -> [ 17@0 ]  39 -> [ 17@0 ]  40 -> [ 12@0 ]  41 -> [ 12@0 ]  42 -> [ 12@0 ]  43 -> [ 12@0 ]  52 -> [ 5@0 ]  53 -> [ 5@0 ]  54 -> [ 5@0 ]  55 -> [ 5@0 ]  ].
8 | network_0/router_level2_7/vc_allocator | Input grants = [ 5 -> 52  12 -> 40  17 -> 36  20 -> 32  ], output grants = [ 32 -> 20  36 -> 17  40 -> 12  52 -> 5  ].
8 | network_0/router_level2_7 | Assigning VC 0 at output 13 to VC 1 at input 1.
8 | network_0/router_level2_7 | Beginning crossbar traversal for flit 3 from input 1.0 to output 14.0.
8 | network_0/router_level2_7 | Beginning crossbar traversal for flit 10 from input 2.0 to output 12.0.
8 | network_0/router_level2_7 | Completed VC allocation for VC 1 at input 1 (front: 5).
8 | network_0/router_level2_7 |   Acquiring assigned VC 0 at output 13.
8 | network_0/router_level2_7/buf_1/vc_1 | Changing state from vc_alloc to active.
8 | network_0/router_level2_7 | Completed crossbar traversal for flit 3 from input 1.0 to output 14.0.
8 | network_0/router_level2_7 | Buffering flit 3 at output 14.
8 | network_0/router_level2_7 | Completed crossbar traversal for flit 10 from input 2.0 to output 12.0.
8 | network_0/router_level2_7 | Buffering flit 10 at output 12.
8 | network_0/router_level2_0 | Sending flit 8 to channel at output 10.
8 | network_0/router_level2_1 | Sending flit 2 to channel at output 8.
8 | network_0/router_level2_4 | Sending flit 6 to channel at output 10.
8 | network_0/router_level2_5 | Sending flit 1 to channel at output 13.
8 | network_0/router_level2_6 | Sending flit 4 to channel at output 8.
8 | network_0/router_level2_7 | Sending flit 10 to channel at output 12.
8 | network_0/router_level2_7 | Sending flit 3 to channel at output 14.
9 | network_0/network_0_fchan_12290 | Beginning channel traversal for flit 8 with delay 1.
9 | network_0/network_0_fchan_12296 | Beginning channel traversal for flit 2 with delay 1.
9 | network_0/network_0_fchan_12322 | Beginning channel traversal for flit 6 with delay 1.
9 | network_0/network_0_fchan_12333 | Beginning channel traversal for flit 1 with delay 1.
9 | network_0/network_0_fchan_12336 | Beginning channel traversal for flit 4 with delay 1.
9 | network_0/network_0_fchan_12348 | Beginning channel traversal for flit 10 with delay 1.
9 | network_0/network_0_fchan_12350 | Beginning channel traversal for flit 3 with delay 1.
9 | network_0/router_level2_1 | Beginning crossbar traversal for flit 9 from input 2.0 to output 8.0.
9 | network_0/router_level2_1 | Completed crossbar traversal for flit 9 from input 2.0 to output 8.0.
9 | network_0/router_level2_1 | Buffering flit 9 at output 8.
9 | network_0/router_level2_5 | Beginning crossbar traversal for flit 7 from input 1.0 to output 14.0.
9 | network_0/router_level2_5 | Completed crossbar traversal for flit 7 from input 1.0 to output 14.0.
9 | network_0/router_level2_5 | Buffering flit 7 at output 14.
9 | network_0/router_level2_7 | Beginning switch allocation for VC 1 at input 1 (front: 5).
9 | network_0/router_level2_7 |   Requesting output 13.0 (non-spec, pri: 0).
9 | network_0/router_level2_7/sw_allocator | Input requests = [ 1 -> [ 13@0 ]  3 -> [ 10@0 ]  4 -> [ 9@0 ]  5 -> [ 8@0 ]  ], output requests = [ 8 -> [ 5@0 ]  9 -> [ 4@0 ]  10 -> [ 3@0 ]  13 -> [ 1@0 ]  ].
9 | network_0/router_level2_7/sw_allocator | Input grants = [ 1 -> 13  3 -> 10  4 -> 9  5 -> 8  ], output grants = [ 8 -> 5  9 -> 4  10 -> 3  13 -> 1  ].
9 | network_0/router_level2_7 | Assigning output 13.0 to VC 1 at input 1.0.
9 | network_0/router_level2_7 | Completed switch allocation for VC 1 at input 1 (front: 5).
9 | network_0/router_level2_7 |   Scheduling switch connection from input 1.0 to output 13.0.
9 | network_0/router_level2_7 | Updating lookahead routing information for flit 5.
9 | network_0/network_0_fchan_12290 | Completed channel traversal for flit 8.
9 | network_0/network_0_fchan_12296 | Completed channel traversal for flit 2.
9 | network_0/network_0_fchan_12322 | Completed channel traversal for flit 6.
9 | network_0/network_0_fchan_12333 | Completed channel traversal for flit 1.
9 | network_0/network_0_fchan_12336 | Completed channel traversal for flit 4.
9 | network_0/network_0_fchan_12348 | Completed channel traversal for flit 10.
9 | network_0/network_0_fchan_12350 | Completed channel traversal for flit 3.
9 | network_0/router_level2_1 | Sending flit 9 to channel at output 8.
9 | network_0/router_level2_5 | Sending flit 7 to channel at output 14.
10 | network_0/network_0_fchan_12296 | Beginning channel traversal for flit 9 with delay 1.
10 | network_0/network_0_fchan_12334 | Beginning channel traversal for flit 7 with delay 1.
10 | network_0/router_level1_1 | Received flit 2 from channel at input 0.
10 | network_0/router_level1_6 | Received flit 4 from channel at input 0.
10 | network_0/router_level1_16 | Received flit 8 from channel at input 0.
10 | network_0/router_level1_20 | Received flit 6 from channel at input 0.
10 | network_0/router_level1_39 | Received flit 10 from channel at input 0.
10 | network_0/router_level1_45 | Received flit 1 from channel at input 0.
10 | network_0/router_level1_55 | Received flit 3 from channel at input 0.
10 | network_0/router_level1_1 | Adding flit 2 to VC 0 at input 0 (state: idle, empty).
10 | network_0/router_level1_1 | Using precomputed lookahead routing information for VC 0 at input 0 (front: 2).
10 | network_0/router_level1_1/buf_0/vc_0 | Changing state from idle to vc_alloc.
10 | network_0/router_level1_1 | Beginning VC allocation for VC 0 at input 0 (front: 2).
10 | network_0/router_level1_1 |   Requesting VC 0 at output 8 (in_pri: 0, out_pri: 0).
10 | network_0/router_level1_1 |   Requesting VC 1 at output 8 (in_pri: 0, out_pri: 0).
10 | network_0/router_level1_1 |   Requesting VC 2 at output 8 (in_pri: 0, out_pri: 0).
10 | network_0/router_level1_1 |   Requesting VC 3 at output 8 (in_pri: 0, out_pri: 0).
10 | network_0/router_level1_1/vc_allocator | Input requests = [ 0 -> [ 32@0 33@0 34@0 35@0 ]  4 -> [ 36@0 37@0 38@0 39@0 ]  28 -> [ 24@0 25@0 26@0 27@0 ]  ], output requests = [ 24 -> [ 28@0 ]  25 -> [ 28@0 ]  26 -> [ 28@0 ]  27 -> [ 28@0 ]  32 -> [ 0@0 ]  33 -> [ 0@0 ]  34 -> [ 0@0 ]  35 -> [ 0@0 ]  36 -> [ 4@0 ]  37 -> [ 4@0 ]  38 -> [ 4@0 ]  39 -> [ 4@0 ]  ].
10 | network_0/router_level1_1/vc_allocator | Input grants = [ 0 -> 32  4 -> 36  28 -> 24  ], output grants = [ 24 -> 28  32 -> 0  36 -> 4  ].
10 | network_0/router_level1_1 | Assigning VC 0 at output 8 to VC 0 at input 0.
10 | network_0/router_level1_1 | Completed VC allocation for VC 0 at input 0 (front: 2).
10 | network_0/router_level1_1 |   Acquiring assigned VC 0 at output 8.
10 | network_0/router_level1_1/buf_0/vc_0 | Changing state from vc_alloc to active.
10 | network_0/router_level1_6 | Adding flit 4 to VC 0 at input 0 (state: idle, empty).
10 | network_0/router_level1_6 | Using precomputed lookahead routing information for VC 0 at input 0 (front: 4).
10 | network_0/router_level1_6/buf_0/vc_0 | Changing state from idle to vc_alloc.
10 | network_0/router_level1_6 | Beginning VC allocation for VC 0 at input 0 (front: 4).
10 | network_0/router_level1_6 |   Requesting VC 0 at output 8 (in_pri: 0, out_pri: 0).
10 | network_0/router_level1_6 |   Requesting VC 1 at output 8 (in_pri: 0, out_pri: 0).
10 | network_0/router_level1_6 |   Requesting VC 2 at output 8 (in_pri: 0, out_pri: 0).
10 | network_0/router_level1_6 |   Requesting VC 3 at output 8 (in_pri: 0, out_pri: 0).
10 | network_0/router_level1_6/vc_allocator | Input requests = [ 0 -> [ 32@0 33@0 34@0 35@0 ]  12 -> [ 36@0 37@0 38@0 39@0 ]  16 -> [ 8@0 9@0 10@0 11@0 ]  28 -> [ 32@0 33@0 34@0 35@0 ]  ], output requests = [ 8 -> [ 16@0 ]  9 -> [ 16@0 ]  10 -> [ 16@0 ]  11 -> [ 16@0 ]  32 -> [ 0@0 28@0 ]  33 -> [ 0@0 28@0 ]  34 -> [ 0@0 28@0 ]  35 -> [ 0@0 28@0 ]  36 -> [ 12@0 ]  37 -> [ 12@0 ]  38 -> [ 12@0 ]  39 -> [ 12@0 ]  ].
10 | network_0/router_level1_6/vc_allocator | Input grants = [ 0 -> 32  12 -> 36  16 -> 8  ], output grants = [ 8 -> 16  32 -> 0  36 -> 12  ].
10 | network_0/router_level1_6 | Assigning VC 0 at output 8 to VC 0 at input 0.
10 | network_0/router_level1_6 | Completed VC allocation for VC 0 at input 0 (front: 4).
10 | network_0/router_level1_6 |   Acquiring assigned VC 0 at output 8.
10 | network_0/router_level1_6/buf_0/vc_0 | Changing state from vc_alloc to active.
10 | network_0/router_level1_16 | Adding flit 8 to VC 0 at input 0 (state: idle, empty).
10 | network_0/router_level1_16 | Using precomputed lookahead routing information for VC 0 at input 0 (front: 8).
10 | network_0/router_level1_16/buf_0/vc_0 | Changing state from idle to vc_alloc.
10 | network_0/router_level1_16 | Beginning VC allocation for VC 0 at input 0 (front: 8).
10 | network_0/router_level1_16 |   Requesting VC 0 at output 9 (in_pri: 0, out_pri: 0).
10 | network_0/router_level1_16 |   Requesting VC 1 at output 9 (in_pri: 0, out_pri: 0).
10 | network_0/router_level1_16 |   Requesting VC 2 at output 9 (in_pri: 0, out_pri: 0).
10 | network_0/router_level1_16 |   Requesting VC 3 at output 9 (in_pri: 0, out_pri: 0).
10 | network_0/router_level1_16/vc_allocator | Input requests = [ 0 -> [ 36@0 37@0 38@0 39@0 ]  4 -> [ 32@0 33@0 34@0 35@0 ]  16 -> [ 32@0 33@0 34@0 35@0 ]  ], output requests = [ 32 -> [ 4@0 16@0 ]  33 -> [ 4@0 16@0 ]  34 -> [ 4@0 16@0 ]  35 -> [ 4@0 16@0 ]  36 -> [ 0@0 ]  37 -> [ 0@0 ]  38 -> [ 0@0 ]  39 -> [ 0@0 ]  ].
10 | network_0/router_level1_16/vc_allocator | Input grants = [ 0 -> 36  4 -> 32  ], output grants = [ 32 -> 4  36 -> 0  ].
10 | network_0/router_level1_16 | Assigning VC 0 at output 9 to VC 0 at input 0.
10 | network_0/router_level1_16 | Completed VC allocation for VC 0 at input 0 (front: 8).
10 | network_0/router_level1_16 |   Acquiring assigned VC 0 at output 9.
10 | network_0/router_level1_16/buf_0/vc_0 | Changing state from vc_alloc to active.
10 | network_0/router_level1_20 | Adding flit 6 to VC 0 at input 0 (state: idle, empty).
10 | network_0/router_level1_20 | Using precomputed lookahead routing information for VC 0 at input 0 (front: 6).
10 | network_0/router_level1_20/buf_0/vc_0 | Changing state from idle to vc_alloc.
10 | network_0/router_level1_20 | Beginning VC allocation for VC 0 at input 0 (front: 6).
10 | network_0/router_level1_20 |   Requesting VC 0 at output 8 (in_pri: 0, out_pri: 0).
10 | network_0/router_level1_20 |   Requesting VC 1 at output 8 (in_pri: 0, out_pri: 0).
10 | network_0/router_level1_20 |   Requesting VC 2 at output 8 (in_pri: 0, out_pri: 0).
10 | network_0/router_level1_20 |   Requesting VC 3 at output 8 (in_pri: 0, out_pri: 0).
10 | network_0/router_level1_20/vc_allocator | Input requests = [ 0 -> [ 32@0 33@0 34@0 35@0 ]  12 -> [ 36@0 37@0 38@0 39@0 ]  16 -> [ 32@0 33@0 34@0 35@0 ]  ], output requests = [ 32 -> [ 0@0 16@0 ]  33 -> [ 0@0 16@0 ]  34 -> [ 0@0 16@0 ]  35 -> [ 0@0 16@0 ]  36 -> [ 12@0 ]  37 -> [ 12@0 ]  38 -> [ 12@0 ]  39 -> [ 12@0 ]  ].
10 | network_0/router_level1_20/vc_allocator | Input grants = [ 0 -> 32  12 -> 36  ], output grants = [ 32 -> 0  36 -> 12  ].
10 | network_0/router_level1_20 | Assigning VC 0 at output 8 to VC 0 at input 0.
10 | network_0/router_level1_20 | Completed VC allocation for VC 0 at input 0 (front: 6).
10 | network_0/router_level1_20 |   Acquiring assigned VC 0 at output 8.
10 | network_0/router_level1_20/buf_0/vc_0 | Changing state from vc_alloc to active.
10 | network_0/router_level1_39 | Adding flit 10 to VC 0 at input 0 (state: idle, empty).
10 | network_0/router_level1_39 | Using precomputed lookahead routing information for VC 0 at input 0 (front: 10).
10 | network_0/router_level1_39/buf_0/vc_0 | Changing state from idle to vc_alloc.
10 | network_0/router_level1_39 | Beginning VC allocation for VC 0 at input 0 (front: 10).
10 | network_0/router_level1_39 |   Requesting VC 0 at output 9 (in_pri: 0, out_pri: 0).
10 | network_0/router_level1_39 |   Requesting VC 1 at output 9 (in_pri: 0, out_pri: 0).
10 | network_0/router_level1_39 |   Requesting VC 2 at output 9 (in_pri: 0, out_pri: 0).
10 | network_0/router_level1_39 |   Requesting VC 3 at output 9 (in_pri: 0, out_pri: 0).
10 | network_0/router_level1_39/vc_allocator | Input requests = [ 0 -> [ 36@0 37@0 38@0 39@0 ]  20 -> [ 32@0 33@0 34@0 35@0 ]  24 -> [ 4@0 5@0 6@0 7@0 ]  ], output requests = [ 4 -> [ 24@0 ]  5 -> [ 24@0 ]  6 -> [ 24@0 ]  7 -> [ 24@0 ]  32 -> [ 20@0 ]  33 -> [ 20@0 ]  34 -> [ 20@0 ]  35 -> [ 20@0 ]  36 -> [ 0@0 ]  37 -> [ 0@0 ]  38 -> [ 0@0 ]  39 -> [ 0@0 ]  ].
10 | network_0/router_level1_39/vc_allocator | Input grants = [ 0 -> 36  20 -> 32  24 -> 4  ], output grants = [ 4 -> 24  32 -> 20  36 -> 0  ].
10 | network_0/router_level1_39 | Assigning VC 0 at output 9 to VC 0 at input 0.
10 | network_0/router_level1_39 | Completed VC allocation for VC 0 at input 0 (front: 10).
10 | network_0/router_level1_39 |   Acquiring assigned VC 0 at output 9.
10 | network_0/router_level1_39/buf_0/vc_0 | Changing state from vc_alloc to active.
10 | network_0/router_level1_45 | Adding flit 1 to VC 0 at input 0 (state: idle, empty).
10 | network_0/router_level1_45 | Using precomputed lookahead routing information for VC 0 at input 0 (front: 1).
10 | network_0/router_level1_45/buf_0/vc_0 | Changing state from idle to vc_alloc.
10 | network_0/router_level1_45 | Beginning VC allocation for VC 0 at input 0 (front: 1).
10 | network_0/router_level1_45 |   Requesting VC 0 at output 9 (in_pri: 0, out_pri: 0).
10 | network_0/router_level1_45 |   Requesting VC 1 at output 9 (in_pri: 0, out_pri: 0).
10 | network_0/router_level1_45 |   Requesting VC 2 at output 9 (in_pri: 0, out_pri: 0).
10 | network_0/router_level1_45 |   Requesting VC 3 at output 9 (in_pri: 0, out_pri: 0).
10 | network_0/router_level1_45/vc_allocator | Input requests = [ 0 -> [ 36@0 37@0 38@0 39@0 ]  4 -> [ 32@0 33@0 34@0 35@0 ]  8 -> [ 36@0 37@0 38@0 39@0 ]  12 -> [ 36@0 37@0 38@0 39@0 ]  24 -> [ 32@0 33@0 34@0 35@0 ]  ], output requests = [ 32 -> [ 4@0 24@0 ]  33 -> [ 4@0 24@0 ]  34 -> [ 4@0 24@0 ]  35 -> [ 4@0 24@0 ]  36 -> [ 0@0 8@0 12@0 ]  37 -> [ 0@0 8@0 12@0 ]  38 -> [ 0@0 8@0 12@0 ]  39 -> [ 0@0 8@0 12@0 ]  ].
10 | network_0/router_level1_45/vc_allocator | Input grants = [ 0 -> 36  4 -> 32  ], output grants = [ 32 -> 4  36 -> 0  ].
10 | network_0/router_level1_45 | Assigning VC 0 at output 9 to VC 0 at input 0.
10 | network_0/router_level1_45 | Completed VC allocation for VC 0 at input 0 (front: 1).
10 | network_0/router_level1_45 |   Acquiring assigned VC 0 at output 9.
10 | network_0/router_level1_45/buf_0/vc_0 | Changing state from vc_alloc to active.
10 | network_0/router_level1_55 | Adding flit 3 to VC 0 at input 0 (state: idle, empty).
10 | network_0/router_level1_55 | Using precomputed lookahead routing information for VC 0 at input 0 (front: 3).
10 | network_0/router_level1_55/buf_0/vc_0 | Changing state from idle to vc_alloc.
10 | network_0/router_level1_55 | Beginning VC allocation for VC 0 at input 0 (front: 3).
10 | network_0/router_level1_55 |   Requesting VC 0 at output 8 (in_pri: 0, out_pri: 0).
10 | network_0/router_level1_55 |   Requesting VC 1 at output 8 (in_pri: 0, out_pri: 0).
10 | network_0/router_level1_55 |   Requesting VC 2 at output 8 (in_pri: 0, out_pri: 0).
10 | network_0/router_level1_55 |   Requesting VC 3 at output 8 (in_pri: 0, out_pri: 0).
10 | network_0/router_level1_55/vc_allocator | Input requests = [ 0 -> [ 32@0 33@0 34@0 35@0 ]  4 -> [ 32@0 33@0 34@0 35@0 ]  8 -> [ 36@0 37@0 38@0 39@0 ]  16 -> [ 36@0 37@0 38@0 39@0 ]  20 -> [ 16@0 17@0 18@0 19@0 ]  24 -> [ 36@0 37@0 38@0 39@0 ]  ], output requests = [ 16 -> [ 20@0 ]  17 -> [ 20@0 ]  18 -> [ 20@0 ]  19 -> [ 20@0 ]  32 -> [ 0@0 4@0 ]  33 -> [ 0@0 4@0 ]  34 -> [ 0@0 4@0 ]  35 -> [ 0@0 4@0 ]  36 -> [ 8@0 16@0 24@0 ]  37 -> [ 8@0 16@0 24@0 ]  38 -> [ 8@0 16@0 24@0 ]  39 -> [ 8@0 16@0 24@0 ]  ].
10 | network_0/router_level1_55/vc_allocator | Input grants = [ 0 -> 32  8 -> 36  20 -> 16  ], output grants = [ 16 -> 20  32 -> 0  36 -> 8  ].
10 | network_0/router_level1_55 | Assigning VC 0 at output 8 to VC 0 at input 0.
10 | network_0/router_level1_55 | Completed VC allocation for VC 0 at input 0 (front: 3).
10 | network_0/router_level1_55 |   Acquiring assigned VC 0 at output 8.
10 | network_0/router_level1_55/buf_0/vc_0 | Changing state from vc_alloc to active.
10 | network_0/router_level2_7 | Beginning crossbar traversal for flit 5 from input 1.0 to output 13.0.
10 | network_0/router_level2_7 | Completed crossbar traversal for flit 5 from input 1.0 to output 13.0.
10 | network_0/router_level2_7 | Buffering flit 5 at output 13.
10 | network_0/network_0_fchan_12296 | Completed channel traversal for flit 9.
10 | network_0/network_0_fchan_12334 | Completed channel traversal for flit 7.
10 | network_0/router_level2_7 | Sending flit 5 to channel at output 13.
11 | network_0/network_0_fchan_12349 | Beginning channel traversal for flit 5 with delay 1.
11 | network_0/router_level1_1 | Received flit 9 from channel at input 0.
11 | network_0/router_level1_53 | Received flit 7 from channel at input 0.
11 | network_0/router_level1_1 | Adding flit 9 to VC 1 at input 0 (state: idle, empty).
11 | network_0/router_level1_1 | Using precomputed lookahead routing information for VC 1 at input 0 (front: 9).
11 | network_0/router_level1_1/buf_0/vc_1 | Changing state from idle to vc_alloc.
11 | network_0/router_level1_1 | Beginning VC allocation for VC 1 at input 0 (front: 9).
11 | network_0/router_level1_1 |   Requesting VC 0 at output 7 (in_pri: 0, out_pri: 0).
11 | network_0/router_level1_1 |   Requesting VC 1 at output 7 (in_pri: 0, out_pri: 0).
11 | network_0/router_level1_1 |   Requesting VC 2 at output 7 (in_pri: 0, out_pri: 0).
11 | network_0/router_level1_1 |   Requesting VC 3 at output 7 (in_pri: 0, out_pri: 0).
11 | network_0/router_level1_1/vc_allocator | Input requests = [ 1 -> [ 28@0 29@0 30@0 31@0 ]  5 -> [ 33@0 34@0 35@0 ]  8 -> [ 37@0 38@0 39@0 ]  16 -> [ 33@0 34@0 35@0 ]  ], output requests = [ 28 -> [ 1@0 ]  29 -> [ 1@0 ]  30 -> [ 1@0 ]  31 -> [ 1@0 ]  33 -> [ 5@0 16@0 ]  34 -> [ 5@0 16@0 ]  35 -> [ 5@0 16@0 ]  37 -> [ 8@0 ]  38 -> [ 8@0 ]  39 -> [ 8@0 ]  ].
11 | network_0/router_level1_1/vc_allocator | Input grants = [ 1 -> 28  5 -> 33  8 -> 37  ], output grants = [ 28 -> 1  33 -> 5  37 -> 8  ].
11 | network_0/router_level1_1 | Assigning VC 0 at output 7 to VC 1 at input 0.
11 | network_0/router_level1_1 | Beginning switch allocation for VC 0 at input 0 (front: 2).
11 | network_0/router_level1_1 |   Requesting output 8.0 (non-spec, pri: 0).
11 | network_0/router_level1_1/sw_allocator | Input requests = [ 0 -> [ 8@0 ]  1 -> [ 9@0 ]  7 -> [ 6@0 ]  ], output requests = [ 6 -> [ 7@0 ]  8 -> [ 0@0 ]  9 -> [ 1@0 ]  ].
11 | network_0/router_level1_1/sw_allocator | Input grants = [ 0 -> 8  1 -> 9  7 -> 6  ], output grants = [ 6 -> 7  8 -> 0  9 -> 1  ].
11 | network_0/router_level1_1 | Assigning output 8.0 to VC 0 at input 0.0.
11 | network_0/router_level1_1 | Completed VC allocation for VC 1 at input 0 (front: 9).
11 | network_0/router_level1_1 |   Acquiring assigned VC 0 at output 7.
11 | network_0/router_level1_1/buf_0/vc_1 | Changing state from vc_alloc to active.
11 | network_0/router_level1_1 | Completed switch allocation for VC 0 at input 0 (front: 2).
11 | network_0/router_level1_1 |   Scheduling switch connection from input 0.0 to output 8.0.
11 | network_0/router_level1_1 | Updating lookahead routing information for flit 2.
11 | network_0/router_level1_6 | Beginning switch allocation for VC 0 at input 0 (front: 4).
11 | network_0/router_level1_6 |   Requesting output 8.0 (non-spec, pri: 0).
11 | network_0/router_level1_6/sw_allocator | Input requests = [ 0 -> [ 8@0 ]  3 -> [ 9@0 ]  4 -> [ 2@0 ]  ], output requests = [ 2 -> [ 4@0 ]  8 -> [ 0@0 ]  9 -> [ 3@0 ]  ].
11 | network_0/router_level1_6/sw_allocator | Input grants = [ 0 -> 8  3 -> 9  4 -> 2  ], output grants = [ 2 -> 4  8 -> 0  9 -> 3  ].
11 | network_0/router_level1_6 | Assigning output 8.0 to VC 0 at input 0.0.
11 | network_0/router_level1_6 | Completed switch allocation for VC 0 at input 0 (front: 4).
11 | network_0/router_level1_6 |   Scheduling switch connection from input 0.0 to output 8.0.
11 | network_0/router_level1_6 | Updating lookahead routing information for flit 4.
11 | network_0/router_level1_16 | Beginning switch allocation for VC 0 at input 0 (front: 8).
11 | network_0/router_level1_16 |   Requesting output 9.0 (non-spec, pri: 0).
11 | network_0/router_level1_16/sw_allocator | Input requests = [ 0 -> [ 9@0 ]  1 -> [ 8@0 ]  ], output requests = [ 8 -> [ 1@0 ]  9 -> [ 0@0 ]  ].
11 | network_0/router_level1_16/sw_allocator | Input grants = [ 0 -> 9  1 -> 8  ], output grants = [ 8 -> 1  9 -> 0  ].
11 | network_0/router_level1_16 | Assigning output 9.0 to VC 0 at input 0.0.
11 | network_0/router_level1_16 | Completed switch allocation for VC 0 at input 0 (front: 8).
11 | network_0/router_level1_16 |   Scheduling switch connection from input 0.0 to output 9.0.
11 | network_0/router_level1_16 | Updating lookahead routing information for flit 8.
11 | network_0/router_level1_20 | Beginning switch allocation for VC 0 at input 0 (front: 6).
11 | network_0/router_level1_20 |   Requesting output 8.0 (non-spec, pri: 0).
11 | network_0/router_level1_20/sw_allocator | Input requests = [ 0 -> [ 8@0 ]  3 -> [ 9@0 ]  ], output requests = [ 8 -> [ 0@0 ]  9 -> [ 3@0 ]  ].
11 | network_0/router_level1_20/sw_allocator | Input grants = [ 0 -> 8  3 -> 9  ], output grants = [ 8 -> 0  9 -> 3  ].
11 | network_0/router_level1_20 | Assigning output 8.0 to VC 0 at input 0.0.
11 | network_0/router_level1_20 | Completed switch allocation for VC 0 at input 0 (front: 6).
[...]
27 | network_0/router_level3_305 |   Scheduling switch connection from input 14.0 to output 0.0.
28 | network_0/router_level2_487 | Beginning switch allocation for VC 0 at input 13 (front: 5).
28 | network_0/router_level2_487 |   Requesting output 5.0 (non-spec, pri: 0).
28 | network_0/router_level2_487/sw_allocator | Input requests = [ 0 -> [ 9@0 11@0 ]  5 -> [ 14@0 ]  7 -> [ 11@0 14@0 ]  13 -> [ 5@0 ]  ], output requests = [ 5 -> [ 13@0 ]  9 -> [ 0@0 ]  11 -> [ 0@0 7@0 ]  14 -> [ 5@0 7@0 ]  ].
28 | network_0/router_level2_487/sw_allocator | Input grants = [ 0 -> 9  5 -> 14  7 -> 11  13 -> 5  ], output grants = [ 5 -> 13  9 -> 0  11 -> 7  14 -> 5  ].
28 | network_0/router_level2_487 | Assigning output 5.0 to VC 0 at input 13.0.
28 | network_0/router_level2_487 | Completed switch allocation for VC 0 at input 13 (front: 5).
28 | network_0/router_level2_487 |   Scheduling switch connection from input 13.0 to output 5.0.
28 | network_0/router_level2_487 | Updating lookahead routing information for flit 5.
28 | network_0/router_level3_129 | Beginning switch allocation for VC 1 at input 15 (front: 10).
28 | network_0/router_level3_129 |   Requesting output 6.0 (non-spec, pri: 0).
28 | network_0/router_level3_129/sw_allocator | Input requests = [ 0 -> [ 9@0 ]  1 -> [ 14@0 ]  4 -> [ 8@0 11@0 ]  7 -> [ 10@0 ]  15 -> [ 6@0 ]  ], output requests = [ 6 -> [ 15@0 ]  8 -> [ 4@0 ]  9 -> [ 0@0 ]  10 -> [ 7@0 ]  11 -> [ 4@0 ]  14 -> [ 1@0 ]  ].
28 | network_0/router_level3_129/sw_allocator | Input grants = [ 0 -> 9  1 -> 14  4 -> 8  7 -> 10  15 -> 6  ], output grants = [ 6 -> 15  8 -> 4  9 -> 0  10 -> 7  14 -> 1  ].
28 | network_0/router_level3_129 | Assigning output 6.0 to VC 1 at input 15.0.
28 | network_0/router_level3_129 | Completed switch allocation for VC 1 at input 15 (front: 10).
28 | network_0/router_level3_129 |   Scheduling switch connection from input 15.0 to output 6.0.
28 | network_0/router_level3_151 | Beginning VC allocation for VC 1 at input 15 (front: 3).
28 | network_0/router_level3_151 |   VC 0 at output 1 is in use by VC 0 at input 13 (front flit: 1536).
28 | network_0/router_level3_151 |   Requesting VC 1 at output 1 (in_pri: 0, out_pri: 0).
28 | network_0/router_level3_151 |   Requesting VC 2 at output 1 (in_pri: 0, out_pri: 0).
28 | network_0/router_level3_151 |   Requesting VC 3 at output 1 (in_pri: 0, out_pri: 0).
28 | network_0/router_level3_151/vc_allocator | Input requests = [ 1 -> [ 33@0 34@0 35@0 ]  7 -> [ 36@0 37@0 38@0 39@0 ]  9 -> [ 60@0 61@0 62@0 63@0 ]  13 -> [ 56@0 57@0 58@0 59@0 ]  16 -> [ 40@0 42@0 43@0 ]  21 -> [ 44@0 45@0 46@0 47@0 ]  61 -> [ 5@0 6@0 7@0 ]  ], output requests = [ 5 -> [ 61@0 ]  6 -> [ 61@0 ]  7 -> [ 61@0 ]  33 -> [ 1@0 ]  34 -> [ 1@0 ]  35 -> [ 1@0 ]  36 -> [ 7@0 ]  37 -> [ 7@0 ]  38 -> [ 7@0 ]  39 -> [ 7@0 ]  40 -> [ 16@0 ]  42 -> [ 16@0 ]  43 -> [ 16@0 ]  44 -> [ 21@0 ]  45 -> [ 21@0 ]  46 -> [ 21@0 ]  47 -> [ 21@0 ]  56 -> [ 13@0 ]  57 -> [ 13@0 ]  58 -> [ 13@0 ]  59 -> [ 13@0 ]  60 -> [ 9@0 ]  61 -> [ 9@0 ]  62 -> [ 9@0 ]  63 -> [ 9@0 ]  ].
28 | network_0/router_level3_151/vc_allocator | Input grants = [ 1 -> 33  7 -> 36  9 -> 60  13 -> 56  16 -> 42  21 -> 44  61 -> 5  ], output grants = [ 5 -> 61  33 -> 1  36 -> 7  42 -> 16  44 -> 21  56 -> 13  60 -> 9  ].
28 | network_0/router_level3_151 | Assigning VC 1 at output 1 to VC 1 at input 15.
28 | network_0/router_level3_151 | Completed VC allocation for VC 1 at input 15 (front: 3).
28 | network_0/router_level3_151 |   Acquiring assigned VC 1 at output 1.
28 | network_0/router_level3_151/buf_15/vc_1 | Changing state from vc_alloc to active.
28 | network_0/router_level3_171 | Beginning crossbar traversal for flit 6 from input 12.0 to output 2.0.
28 | network_0/router_level3_171 | Completed crossbar traversal for flit 6 from input 12.0 to output 2.0.
28 | network_0/router_level3_171 | Buffering flit 6 at output 2.
28 | network_0/router_level3_222 | Beginning crossbar traversal for flit 2 from input 9.0 to output 3.0.
28 | network_0/router_level3_222 | Completed crossbar traversal for flit 2 from input 9.0 to output 3.0.
28 | network_0/router_level3_222 | Buffering flit 2 at output 3.
28 | network_0/router_level3_224 | Beginning crossbar traversal for flit 8 from input 8.0 to output 3.0.
28 | network_0/router_level3_224 | Completed crossbar traversal for flit 8 from input 8.0 to output 3.0.
28 | network_0/router_level3_224 | Buffering flit 8 at output 3.
28 | network_0/router_level3_226 | Beginning switch allocation for VC 0 at input 13 (front: 7).
28 | network_0/router_level3_226 |   Requesting output 2.0 (non-spec, pri: 0).
28 | network_0/router_level3_226/sw_allocator | Input requests = [ 0 -> [ 15@0 ]  1 -> [ 10@0 ]  2 -> [ 8@0 13@0 ]  3 -> [ 12@0 ]  4 -> [ 12@0 ]  5 -> [ 14@0 ]  13 -> [ 2@0 ]  15 -> [ 0@0 ]  ], output requests = [ 0 -> [ 15@0 ]  2 -> [ 13@0 ]  8 -> [ 2@0 ]  10 -> [ 1@0 ]  12 -> [ 3@0 4@0 ]  13 -> [ 2@0 ]  14 -> [ 5@0 ]  15 -> [ 0@0 ]  ].
28 | network_0/router_level3_226/sw_allocator | Input grants = [ 0 -> 15  1 -> 10  2 -> 13  3 -> 12  5 -> 14  13 -> 2  15 -> 0  ], output grants = [ 0 -> 15  2 -> 13  10 -> 1  12 -> 3  13 -> 2  14 -> 5  15 -> 0  ].
28 | network_0/router_level3_226 | Assigning output 2.0 to VC 0 at input 13.0.
28 | network_0/router_level3_226 | Completed switch allocation for VC 0 at input 13 (front: 7).
28 | network_0/router_level3_226 |   Scheduling switch connection from input 13.0 to output 2.0.
28 | network_0/router_level3_247 | Beginning crossbar traversal for flit 1 from input 13.0 to output 2.0.
28 | network_0/router_level3_247 | Completed crossbar traversal for flit 1 from input 13.0 to output 2.0.
28 | network_0/router_level3_247 | Buffering flit 1 at output 2.
28 | network_0/router_level3_305 | Beginning crossbar traversal for flit 4 from input 14.0 to output 0.0.
28 | network_0/router_level3_305 | Completed crossbar traversal for flit 4 from input 14.0 to output 0.0.
28 | network_0/router_level3_305 | Buffering flit 4 at output 0.
28 | network_0/router_level3_171 | Sending flit 6 to channel at output 2.
28 | network_0/router_level3_222 | Sending flit 2 to channel at output 3.
28 | network_0/router_level3_224 | Sending flit 8 to channel at output 3.
28 | network_0/router_level3_247 | Sending flit 1 to channel at output 2.
28 | network_0/router_level3_305 | Sending flit 4 to channel at output 0.
29 | network_0/network_0_fchan_egress1370 | Beginning channel traversal for flit 6 with delay 1.
29 | network_0/network_0_fchan_egress1779 | Beginning channel traversal for flit 2 with delay 1.
29 | network_0/network_0_fchan_egress1795 | Beginning channel traversal for flit 8 with delay 1.
29 | network_0/network_0_fchan_egress1978 | Beginning channel traversal for flit 1 with delay 1.
29 | network_0/network_0_fchan_egress2440 | Beginning channel traversal for flit 4 with delay 1.
29 | network_0/router_level2_487 | Beginning crossbar traversal for flit 5 from input 13.0 to output 5.0.
29 | network_0/router_level2_487 | Completed crossbar traversal for flit 5 from input 13.0 to output 5.0.
29 | network_0/router_level2_487 | Buffering flit 5 at output 5.
29 | network_0/router_level3_129 | Beginning crossbar traversal for flit 10 from input 15.0 to output 6.0.
29 | network_0/router_level3_129 | Completed crossbar traversal for flit 10 from input 15.0 to output 6.0.
29 | network_0/router_level3_129 | Buffering flit 10 at output 6.
29 | network_0/router_level3_151 | Beginning switch allocation for VC 1 at input 15 (front: 3).
29 | network_0/router_level3_151 |   Requesting output 1.0 (non-spec, pri: 0).
29 | network_0/router_level3_151/sw_allocator | Input requests = [ 0 -> [ 8@0 ]  1 -> [ 9@0 ]  2 -> [ 15@0 ]  3 -> [ 13@0 14@0 ]  4 -> [ 10@0 ]  5 -> [ 10@0 11@0 ]  15 -> [ 1@0 ]  ], output requests = [ 1 -> [ 15@0 ]  8 -> [ 0@0 ]  9 -> [ 1@0 ]  10 -> [ 4@0 5@0 ]  11 -> [ 5@0 ]  13 -> [ 3@0 ]  14 -> [ 3@0 ]  15 -> [ 2@0 ]  ].
29 | network_0/router_level3_151/sw_allocator | Input grants = [ 0 -> 8  1 -> 9  2 -> 15  3 -> 13  5 -> 10  15 -> 1  ], output grants = [ 1 -> 15  8 -> 0  9 -> 1  10 -> 5  13 -> 3  15 -> 2  ].
29 | network_0/router_level3_151 | Assigning output 1.0 to VC 1 at input 15.0.
29 | network_0/router_level3_151 | Completed switch allocation for VC 1 at input 15 (front: 3).
29 | network_0/router_level3_151 |   Scheduling switch connection from input 15.0 to output 1.0.
29 | network_0/router_level3_226 | Beginning crossbar traversal for flit 7 from input 13.0 to output 2.0.
29 | network_0/router_level3_226 | Completed crossbar traversal for flit 7 from input 13.0 to output 2.0.
29 | network_0/router_level3_226 | Buffering flit 7 at output 2.
29 | network_0/network_0_fchan_egress1370 | Completed channel traversal for flit 6.
29 | network_0/network_0_fchan_egress1779 | Completed channel traversal for flit 2.
29 | network_0/network_0_fchan_egress1795 | Completed channel traversal for flit 8.
29 | network_0/network_0_fchan_egress1978 | Completed channel traversal for flit 1.
29 | network_0/network_0_fchan_egress2440 | Completed channel traversal for flit 4.
29 | network_0/router_level2_487 | Sending flit 5 to channel at output 5.
29 | network_0/router_level3_129 | Sending flit 10 to channel at output 6.
29 | network_0/router_level3_226 | Sending flit 7 to channel at output 2.
30 | node1370 | Ejecting flit 6 (packet 6) from VC 0.
30 | node1779 | Ejecting flit 2 (packet 2) from VC 1.
30 | node1795 | Ejecting flit 8 (packet 8) from VC 0.
30 | node1978 | Ejecting flit 1 (packet 1) from VC 0.
30 | node2440 | Ejecting flit 4 (packet 4) from VC 0.
30 | network_0/network_0_fchan_egress1038 | Beginning channel traversal for flit 10 with delay 1.
30 | network_0/network_0_fchan_egress1810 | Beginning channel traversal for flit 7 with delay 1.
30 | network_0/network_0_fchan_20285 | Beginning channel traversal for flit 5 with delay 1.
30 | node1370 | Injecting credit for VC 0 into subnet 0.
30 | node1370 | Retiring flit 6 (packet 6, src = 14, dest = 1370, hops = 7, flat = 30).
30 | node1370 | Retiring packet 6 (plat = 30, nlat = 30, frag = 0, src = 14, dest = 1370).
30 | node1779 | Injecting credit for VC 1 into subnet 0.
30 | node1779 | Retiring flit 2 (packet 2, src = 9, dest = 1779, hops = 7, flat = 30).
30 | node1779 | Retiring packet 2 (plat = 30, nlat = 30, frag = 0, src = 9, dest = 1779).
30 | node1795 | Injecting credit for VC 0 into subnet 0.
30 | node1795 | Retiring flit 8 (packet 8, src = 18, dest = 1795, hops = 7, flat = 30).
30 | node1795 | Retiring packet 8 (plat = 30, nlat = 30, frag = 0, src = 18, dest = 1795).
30 | node1978 | Injecting credit for VC 0 into subnet 0.
30 | node1978 | Retiring flit 1 (packet 1, src = 8, dest = 1978, hops = 7, flat = 30).
30 | node1978 | Retiring packet 1 (plat = 30, nlat = 30, frag = 0, src = 8, dest = 1978).
30 | node2440 | Injecting credit for VC 0 into subnet 0.
30 | node2440 | Retiring flit 4 (packet 4, src = 12, dest = 2440, hops = 7, flat = 30).
30 | node2440 | Retiring packet 4 (plat = 30, nlat = 30, frag = 0, src = 12, dest = 2440).
30 | network_0/router_level3_151 | Beginning crossbar traversal for flit 3 from input 15.0 to output 1.0.
30 | network_0/router_level3_151 | Completed crossbar traversal for flit 3 from input 15.0 to output 1.0.
30 | network_0/router_level3_151 | Buffering flit 3 at output 1.
30 | network_0/network_0_fchan_egress1038 | Completed channel traversal for flit 10.
30 | network_0/network_0_fchan_egress1810 | Completed channel traversal for flit 7.
30 | network_0/network_0_fchan_20285 | Completed channel traversal for flit 5.
30 | network_0/router_level3_151 | Sending flit 3 to channel at output 1.
31 | node1038 | Ejecting flit 10 (packet 10) from VC 1.
31 | node1810 | Ejecting flit 7 (packet 7) from VC 0.
31 | network_0/network_0_fchan_egress1209 | Beginning channel traversal for flit 3 with delay 1.
31 | network_0/router_level3_485 | Received flit 5 from channel at input 15.
31 | node1038 | Injecting credit for VC 1 into subnet 0.
31 | node1038 | Retiring flit 10 (packet 10, src = 20, dest = 1038, hops = 7, flat = 31).
31 | node1038 | Retiring packet 10 (plat = 31, nlat = 31, frag = 0, src = 20, dest = 1038).
31 | node1810 | Injecting credit for VC 0 into subnet 0.
31 | node1810 | Retiring flit 7 (packet 7, src = 15, dest = 1810, hops = 7, flat = 31).
31 | node1810 | Retiring packet 7 (plat = 31, nlat = 31, frag = 0, src = 15, dest = 1810).
31 | network_0/router_level3_485 | Adding flit 5 to VC 0 at input 15 (state: idle, empty).
31 | network_0/router_level3_485 | Using precomputed lookahead routing information for VC 0 at input 15 (front: 5).
31 | network_0/router_level3_485/buf_15/vc_0 | Changing state from idle to vc_alloc.
31 | network_0/router_level3_485 | Beginning VC allocation for VC 0 at input 15 (front: 5).
31 | network_0/router_level3_485 |   Requesting VC 0 at output 6 (in_pri: 0, out_pri: 0).
31 | network_0/router_level3_485 |   Requesting VC 1 at output 6 (in_pri: 0, out_pri: 0).
31 | network_0/router_level3_485 |   Requesting VC 2 at output 6 (in_pri: 0, out_pri: 0).
31 | network_0/router_level3_485 |   Requesting VC 3 at output 6 (in_pri: 0, out_pri: 0).
31 | network_0/router_level3_485/vc_allocator | Input requests = [ 10 -> [ 34@0 35@0 ]  18 -> [ 57@0 59@0 ]  23 -> [ 45@0 46@0 47@0 ]  29 -> [ 48@0 49@0 50@0 51@0 ]  36 -> [ 24@0 25@0 26@0 27@0 ]  60 -> [ 24@0 25@0 26@0 27@0 ]  ], output requests = [ 24 -> [ 36@0 60@0 ]  25 -> [ 36@0 60@0 ]  26 -> [ 36@0 60@0 ]  27 -> [ 36@0 60@0 ]  34 -> [ 10@0 ]  35 -> [ 10@0 ]  45 -> [ 23@0 ]  46 -> [ 23@0 ]  47 -> [ 23@0 ]  48 -> [ 29@0 ]  49 -> [ 29@0 ]  50 -> [ 29@0 ]  51 -> [ 29@0 ]  57 -> [ 18@0 ]  59 -> [ 18@0 ]  ].
31 | network_0/router_level3_485/vc_allocator | Input grants = [ 10 -> 34  18 -> 57  23 -> 45  29 -> 48  36 -> 24  ], output grants = [ 24 -> 36  34 -> 10  45 -> 23  48 -> 29  57 -> 18  ].
31 | network_0/router_level3_485 | VC allocation failed for VC 0 at input 15.
31 | network_0/router_level3_485 | Completed VC allocation for VC 0 at input 15 (front: 5).
31 | network_0/router_level3_485 |   No output VC allocated.
31 | network_0/network_0_fchan_egress1209 | Completed channel traversal for flit 3.
32 | node1209 | Ejecting flit 3 (packet 3) from VC 1.
32 | node1209 | Injecting credit for VC 1 into subnet 0.
32 | node1209 | Retiring flit 3 (packet 3, src = 11, dest = 1209, hops = 7, flat = 32).
32 | node1209 | Retiring packet 3 (plat = 32, nlat = 32, frag = 0, src = 11, dest = 1209).
32 | network_0/router_level3_485 | Beginning VC allocation for VC 0 at input 15 (front: 5).
32 | network_0/router_level3_485 |   VC 0 at output 6 is in use by VC 0 at input 9 (front flit: 16315).
32 | network_0/router_level3_485 |   Requesting VC 1 at output 6 (in_pri: 0, out_pri: 0).
32 | network_0/router_level3_485 |   Requesting VC 2 at output 6 (in_pri: 0, out_pri: 0).
32 | network_0/router_level3_485 |   Requesting VC 3 at output 6 (in_pri: 0, out_pri: 0).
32 | network_0/router_level3_485/vc_allocator | Input requests = [ 3 -> [ 60@0 61@0 62@0 63@0 ]  12 -> [ 52@0 53@0 54@0 55@0 ]  20 -> [ 49@0 50@0 51@0 ]  25 -> [ 49@0 50@0 51@0 ]  30 -> [ 52@0 53@0 54@0 55@0 ]  32 -> [ 20@0 21@0 22@0 23@0 ]  48 -> [ 28@0 29@0 30@0 31@0 ]  60 -> [ 25@0 26@0 27@0 ]  ], output requests = [ 20 -> [ 32@0 ]  21 -> [ 32@0 ]  22 -> [ 32@0 ]  23 -> [ 32@0 ]  25 -> [ 60@0 ]  26 -> [ 60@0 ]  27 -> [ 60@0 ]  28 -> [ 48@0 ]  29 -> [ 48@0 ]  30 -> [ 48@0 ]  31 -> [ 48@0 ]  49 -> [ 20@0 25@0 ]  50 -> [ 20@0 25@0 ]  51 -> [ 20@0 25@0 ]  52 -> [ 12@0 30@0 ]  53 -> [ 12@0 30@0 ]  54 -> [ 12@0 30@0 ]  55 -> [ 12@0 30@0 ]  60 -> [ 3@0 ]  61 -> [ 3@0 ]  62 -> [ 3@0 ]  63 -> [ 3@0 ]  ].
32 | network_0/router_level3_485/vc_allocator | Input grants = [ 3 -> 60  12 -> 53  20 -> 49  30 -> 52  32 -> 20  48 -> 28  60 -> 25  ], output grants = [ 20 -> 32  25 -> 60  28 -> 48  49 -> 20  52 -> 30  53 -> 12  60 -> 3  ].
32 | network_0/router_level3_485 | Assigning VC 1 at output 6 to VC 0 at input 15.
32 | network_0/router_level3_485 | Completed VC allocation for VC 0 at input 15 (front: 5).
32 | network_0/router_level3_485 |   Acquiring assigned VC 1 at output 6.
32 | network_0/router_level3_485/buf_15/vc_0 | Changing state from vc_alloc to active.
33 | network_0/router_level3_485 | Beginning switch allocation for VC 0 at input 15 (front: 5).
33 | network_0/router_level3_485 |   Requesting output 6.0 (non-spec, pri: 0).
33 | network_0/router_level3_485/sw_allocator | Input requests = [ 0 -> [ 15@0 ]  2 -> [ 8@0 ]  3 -> [ 13@0 ]  4 -> [ 14@0 ]  5 -> [ 12@0 ]  7 -> [ 12@0 13@0 ]  8 -> [ 5@0 ]  12 -> [ 7@0 ]  15 -> [ 6@0 ]  ], output requests = [ 5 -> [ 8@0 ]  6 -> [ 15@0 ]  7 -> [ 12@0 ]  8 -> [ 2@0 ]  12 -> [ 5@0 7@0 ]  13 -> [ 3@0 7@0 ]  14 -> [ 4@0 ]  15 -> [ 0@0 ]  ].
33 | network_0/router_level3_485/sw_allocator | Input grants = [ 0 -> 15  2 -> 8  3 -> 13  4 -> 14  5 -> 12  8 -> 5  12 -> 7  15 -> 6  ], output grants = [ 5 -> 8  6 -> 15  7 -> 12  8 -> 2  12 -> 5  13 -> 3  14 -> 4  15 -> 0  ].
33 | network_0/router_level3_485 | Assigning output 6.0 to VC 0 at input 15.0.
33 | network_0/router_level3_485 | Completed switch allocation for VC 0 at input 15 (front: 5).
33 | network_0/router_level3_485 |   Scheduling switch connection from input 15.0 to output 6.0.
34 | network_0/router_level3_485 | Beginning crossbar traversal for flit 5 from input 15.0 to output 6.0.
34 | network_0/router_level3_485 | Completed crossbar traversal for flit 5 from input 15.0 to output 6.0.
34 | network_0/router_level3_485 | Buffering flit 5 at output 6.
34 | network_0/router_level3_485 | Sending flit 5 to channel at output 6.
35 | network_0/network_0_fchan_egress3886 | Beginning channel traversal for flit 5 with delay 1.
35 | network_0/network_0_fchan_egress3886 | Completed channel traversal for flit 5.
36 | node3886 | Ejecting flit 5 (packet 5) from VC 1.
36 | node3886 | Injecting credit for VC 1 into subnet 0.
36 | node3886 | Retiring flit 5 (packet 5, src = 13, dest = 3886, hops = 7, flat = 36).
36 | node3886 | Retiring packet 5 (plat = 36, nlat = 36, frag = 0, src = 13, dest = 3886).
Class 0:
Packet latency average = 285.736
	minimum = 6
	maximum = 794
Network latency average = 285.729
	minimum = 6
	maximum = 794
Slowest packet = 313824
Flit latency average = 285.729
	minimum = 6
	maximum = 794
Slowest flit = 313824
Fragmentation average = 0
	minimum = 0
	maximum = 0
Injected packet rate average = 0.371373
	minimum = 0.294 (at node 725)
	maximum = 0.45 (at node 1317)
Accepted packet rate average = 0.192725
	minimum = 0.144 (at node 1461)
	maximum = 0.237 (at node 1070)
Injected flit rate average = 0.371373
	minimum = 0.294 (at node 725)
	maximum = 0.45 (at node 1317)
Accepted flit rate average= 0.192725
	minimum = 0.144 (at node 1461)
	maximum = 0.237 (at node 1070)
Injected packet length average = 1
Accepted packet length average = 1
Total in-flight flits = 735073 (0 measured)
latency change    = 1
throughput change = 1
Class 0:
Packet latency average = 567.913
	minimum = 6
	maximum = 1562
Network latency average = 538.522
	minimum = 6
	maximum = 1562
Slowest packet = 733264
Flit latency average = 538.522
	minimum = 6
	maximum = 1562
Slowest flit = 733264
Fragmentation average = 0
	minimum = 0
	maximum = 0
Injected packet rate average = 0.278097
	minimum = 0.204 (at node 3063)
	maximum = 0.343 (at node 3822)
Accepted packet rate average = 0.193834
	minimum = 0.1625 (at node 1461)
	maximum = 0.234 (at node 1950)
Injected flit rate average = 0.278097
	minimum = 0.204 (at node 3063)
	maximum = 0.343 (at node 3822)
Accepted flit rate average= 0.193834
	minimum = 0.1625 (at node 1461)
	maximum = 0.234 (at node 1950)
Injected packet length average = 1
Accepted packet length average = 1
Total in-flight flits = 693597 (0 measured)
latency change    = 0.496866
throughput change = 0.0057227
Average latency for class 0 exceeded 500 cycles. Aborting simulation.
Too many sample periods needed to converge
Simulation unstable, ending ...
Total run time 236.368
