BEGIN Configuration File: examples/fattree_config_0.70_1_bitcomp
// $Id: dragonflyconfig 3555 2011-05-16 23:37:55Z dub $

// Copyright (c) 2007-2015, Trustees of The Leland Stanford Junior University
// All rights reserved.
//
// Redistribution and use in source and binary forms, with or without
// modification, are permitted provided that the following conditions are met:
//
// Redistributions of source code must retain the above copyright notice, this
// list of conditions and the following disclaimer.
// Redistributions in binary form must reproduce the above copyright notice,
// this list of conditions and the following disclaimer in the documentation
// and/or other materials provided with the distribution.
//
// THIS SOFTWARE IS PROVIDED BY THE COPYRIGHT HOLDERS AND CONTRIBUTORS "AS IS"
// AND ANY EXPRESS OR IMPLIED WARRANTIES, INCLUDING, BUT NOT LIMITED TO, THE
// IMPLIED WARRANTIES OF MERCHANTABILITY AND FITNESS FOR A PARTICULAR PURPOSE
// ARE DISCLAIMED. IN NO EVENT SHALL THE COPYRIGHT OWNER OR CONTRIBUTORS BE
// LIABLE FOR ANY DIRECT, INDIRECT, INCIDENTAL, SPECIAL, EXEMPLARY, OR
// CONSEQUENTIAL DAMAGES (INCLUDING, BUT NOT LIMITED TO, PROCUREMENT OF
// SUBSTITUTE GOODS OR SERVICES; LOSS OF USE, DATA, OR PROFITS; OR BUSINESS
// INTERRUPTION) HOWEVER CAUSED AND ON ANY THEORY OF LIABILITY, WHETHER IN
// CONTRACT, STRICT LIABILITY, OR TORT (INCLUDING NEGLIGENCE OR OTHERWISE)
// ARISING IN ANY WAY OUT OF THE USE OF THIS SOFTWARE, EVEN IF ADVISED OF THE
// POSSIBILITY OF SUCH DAMAGE.


hold_switch_for_packet=1;

vc_buf_size = 16;


wait_for_tail_credit = 0;

//
// Router architecture
//
vc_allocator = separable_input_first; 
sw_allocator = separable_input_first;
alloc_iters  = 1;

credit_delay   = 2;
routing_delay  = 0;
vc_alloc_delay = 1;
sw_alloc_delay = 1;
st_final_delay = 1;

input_speedup     = 1;
output_speedup    = 1;
internal_speedup  = 1.0;


warmup_periods = 3;
sim_count          = 1;

sample_period  = 1000;  

routing_function = nca;
num_vcs     = 4;

priority = none;
traffic = bitcomp;


injection_rate = 0.70;
packet_size = 1;
injection_rate_uses_flits=1;

topology = fattree;

k  = 8;
n  = 4;
t = 1;

watch_file = watchfile.txt;
watch_out=-;
stats_out = examples/fattree_config_0.70_1_bitcomp.m;

END Configuration File: examples/fattree_config_0.70_1_bitcomp
Fat Tree
 k = 8 levels = 4
 each switch - total radix =  16
 # of switches = 2048
 # of channels = 24576
 # of nodes ( size of network ) = 4096
 tapering factor = 1
0 | node3 | Enqueuing flit 1 (packet 1) at time 0.
0 | node4 | Enqueuing flit 2 (packet 2) at time 0.
0 | node5 | Enqueuing flit 3 (packet 3) at time 0.
0 | node8 | Enqueuing flit 4 (packet 4) at time 0.
0 | node9 | Enqueuing flit 5 (packet 5) at time 0.
0 | node11 | Enqueuing flit 6 (packet 6) at time 0.
0 | node12 | Enqueuing flit 7 (packet 7) at time 0.
0 | node13 | Enqueuing flit 8 (packet 8) at time 0.
0 | node14 | Enqueuing flit 9 (packet 9) at time 0.
0 | node15 | Enqueuing flit 10 (packet 10) at time 0.
0 | traffic_manager | Finding output VC for flit 1:
0 | traffic_manager |   Selected output VC 0.
0 | node3 | Generating lookahead routing info for flit 1.
0 | node3 | Injecting flit 1 into subnet 0 at time 0 with priority 0.
0 | traffic_manager | Finding output VC for flit 2:
0 | traffic_manager |   Selected output VC 0.
0 | node4 | Generating lookahead routing info for flit 2.
0 | node4 | Injecting flit 2 into subnet 0 at time 0 with priority 0.
0 | traffic_manager | Finding output VC for flit 3:
0 | traffic_manager |   Selected output VC 0.
0 | node5 | Generating lookahead routing info for flit 3.
0 | node5 | Injecting flit 3 into subnet 0 at time 0 with priority 0.
0 | traffic_manager | Finding output VC for flit 4:
0 | traffic_manager |   Selected output VC 0.
0 | node8 | Generating lookahead routing info for flit 4.
0 | node8 | Injecting flit 4 into subnet 0 at time 0 with priority 0.
0 | traffic_manager | Finding output VC for flit 5:
0 | traffic_manager |   Selected output VC 0.
0 | node9 | Generating lookahead routing info for flit 5.
0 | node9 | Injecting flit 5 into subnet 0 at time 0 with priority 0.
0 | traffic_manager | Finding output VC for flit 6:
0 | traffic_manager |   Selected output VC 0.
0 | node11 | Generating lookahead routing info for flit 6.
0 | node11 | Injecting flit 6 into subnet 0 at time 0 with priority 0.
0 | traffic_manager | Finding output VC for flit 7:
0 | traffic_manager |   Selected output VC 0.
0 | node12 | Generating lookahead routing info for flit 7.
0 | node12 | Injecting flit 7 into subnet 0 at time 0 with priority 0.
0 | traffic_manager | Finding output VC for flit 8:
0 | traffic_manager |   Selected output VC 0.
0 | node13 | Generating lookahead routing info for flit 8.
0 | node13 | Injecting flit 8 into subnet 0 at time 0 with priority 0.
0 | traffic_manager | Finding output VC for flit 9:
0 | traffic_manager |   Selected output VC 0.
0 | node14 | Generating lookahead routing info for flit 9.
0 | node14 | Injecting flit 9 into subnet 0 at time 0 with priority 0.
0 | traffic_manager | Finding output VC for flit 10:
0 | traffic_manager |   Selected output VC 0.
0 | node15 | Generating lookahead routing info for flit 10.
0 | node15 | Injecting flit 10 into subnet 0 at time 0 with priority 0.
1 | network_0/network_0_fchan_ingress3 | Beginning channel traversal for flit 1 with delay 1.
1 | network_0/network_0_fchan_ingress4 | Beginning channel traversal for flit 2 with delay 1.
1 | network_0/network_0_fchan_ingress5 | Beginning channel traversal for flit 3 with delay 1.
1 | network_0/network_0_fchan_ingress8 | Beginning channel traversal for flit 4 with delay 1.
1 | network_0/network_0_fchan_ingress9 | Beginning channel traversal for flit 5 with delay 1.
1 | network_0/network_0_fchan_ingress11 | Beginning channel traversal for flit 6 with delay 1.
1 | network_0/network_0_fchan_ingress12 | Beginning channel traversal for flit 7 with delay 1.
1 | network_0/network_0_fchan_ingress13 | Beginning channel traversal for flit 8 with delay 1.
1 | network_0/network_0_fchan_ingress14 | Beginning channel traversal for flit 9 with delay 1.
1 | network_0/network_0_fchan_ingress15 | Beginning channel traversal for flit 10 with delay 1.
1 | network_0/network_0_fchan_ingress3 | Completed channel traversal for flit 1.
1 | network_0/network_0_fchan_ingress4 | Completed channel traversal for flit 2.
1 | network_0/network_0_fchan_ingress5 | Completed channel traversal for flit 3.
1 | network_0/network_0_fchan_ingress8 | Completed channel traversal for flit 4.
1 | network_0/network_0_fchan_ingress9 | Completed channel traversal for flit 5.
1 | network_0/network_0_fchan_ingress11 | Completed channel traversal for flit 6.
1 | network_0/network_0_fchan_ingress12 | Completed channel traversal for flit 7.
1 | network_0/network_0_fchan_ingress13 | Completed channel traversal for flit 8.
1 | network_0/network_0_fchan_ingress14 | Completed channel traversal for flit 9.
1 | network_0/network_0_fchan_ingress15 | Completed channel traversal for flit 10.
2 | network_0/router_level3_0 | Received flit 1 from channel at input 3.
2 | network_0/router_level3_0 | Received flit 2 from channel at input 4.
2 | network_0/router_level3_0 | Received flit 3 from channel at input 5.
2 | network_0/router_level3_1 | Received flit 4 from channel at input 0.
2 | network_0/router_level3_1 | Received flit 5 from channel at input 1.
2 | network_0/router_level3_1 | Received flit 6 from channel at input 3.
2 | network_0/router_level3_1 | Received flit 7 from channel at input 4.
2 | network_0/router_level3_1 | Received flit 8 from channel at input 5.
2 | network_0/router_level3_1 | Received flit 9 from channel at input 6.
2 | network_0/router_level3_1 | Received flit 10 from channel at input 7.
2 | network_0/router_level3_0 | Adding flit 1 to VC 0 at input 3 (state: idle, empty).
2 | network_0/router_level3_0 | Using precomputed lookahead routing information for VC 0 at input 3 (front: 1).
2 | network_0/router_level3_0/buf_3/vc_0 | Changing state from idle to vc_alloc.
2 | network_0/router_level3_0 | Adding flit 2 to VC 0 at input 4 (state: idle, empty).
2 | network_0/router_level3_0 | Using precomputed lookahead routing information for VC 0 at input 4 (front: 2).
2 | network_0/router_level3_0/buf_4/vc_0 | Changing state from idle to vc_alloc.
2 | network_0/router_level3_0 | Adding flit 3 to VC 0 at input 5 (state: idle, empty).
2 | network_0/router_level3_0 | Using precomputed lookahead routing information for VC 0 at input 5 (front: 3).
2 | network_0/router_level3_0/buf_5/vc_0 | Changing state from idle to vc_alloc.
2 | network_0/router_level3_0 | Beginning VC allocation for VC 0 at input 3 (front: 1).
2 | network_0/router_level3_0 |   Requesting VC 0 at output 13 (in_pri: 0, out_pri: 0).
2 | network_0/router_level3_0 |   Requesting VC 1 at output 13 (in_pri: 0, out_pri: 0).
2 | network_0/router_level3_0 |   Requesting VC 2 at output 13 (in_pri: 0, out_pri: 0).
2 | network_0/router_level3_0 |   Requesting VC 3 at output 13 (in_pri: 0, out_pri: 0).
2 | network_0/router_level3_0 | Beginning VC allocation for VC 0 at input 4 (front: 2).
2 | network_0/router_level3_0 |   Requesting VC 0 at output 12 (in_pri: 0, out_pri: 0).
2 | network_0/router_level3_0 |   Requesting VC 1 at output 12 (in_pri: 0, out_pri: 0).
2 | network_0/router_level3_0 |   Requesting VC 2 at output 12 (in_pri: 0, out_pri: 0).
2 | network_0/router_level3_0 |   Requesting VC 3 at output 12 (in_pri: 0, out_pri: 0).
2 | network_0/router_level3_0 | Beginning VC allocation for VC 0 at input 5 (front: 3).
2 | network_0/router_level3_0 |   Requesting VC 0 at output 15 (in_pri: 0, out_pri: 0).
2 | network_0/router_level3_0 |   Requesting VC 1 at output 15 (in_pri: 0, out_pri: 0).
2 | network_0/router_level3_0 |   Requesting VC 2 at output 15 (in_pri: 0, out_pri: 0).
2 | network_0/router_level3_0 |   Requesting VC 3 at output 15 (in_pri: 0, out_pri: 0).
2 | network_0/router_level3_0/vc_allocator | Input requests = [ 4 -> [ 44@0 45@0 46@0 47@0 ]  12 -> [ 52@0 53@0 54@0 55@0 ]  16 -> [ 48@0 49@0 50@0 51@0 ]  20 -> [ 60@0 61@0 62@0 63@0 ]  ], output requests = [ 44 -> [ 4@0 ]  45 -> [ 4@0 ]  46 -> [ 4@0 ]  47 -> [ 4@0 ]  48 -> [ 16@0 ]  49 -> [ 16@0 ]  50 -> [ 16@0 ]  51 -> [ 16@0 ]  52 -> [ 12@0 ]  53 -> [ 12@0 ]  54 -> [ 12@0 ]  55 -> [ 12@0 ]  60 -> [ 20@0 ]  61 -> [ 20@0 ]  62 -> [ 20@0 ]  63 -> [ 20@0 ]  ].
2 | network_0/router_level3_0/vc_allocator | Input grants = [ 4 -> 44  12 -> 52  16 -> 48  20 -> 60  ], output grants = [ 44 -> 4  48 -> 16  52 -> 12  60 -> 20  ].
2 | network_0/router_level3_0 | Assigning VC 0 at output 13 to VC 0 at input 3.
2 | network_0/router_level3_0 | Assigning VC 0 at output 12 to VC 0 at input 4.
2 | network_0/router_level3_0 | Assigning VC 0 at output 15 to VC 0 at input 5.
2 | network_0/router_level3_0 | Completed VC allocation for VC 0 at input 3 (front: 1).
2 | network_0/router_level3_0 |   Acquiring assigned VC 0 at output 13.
2 | network_0/router_level3_0/buf_3/vc_0 | Changing state from vc_alloc to active.
2 | network_0/router_level3_0 | Completed VC allocation for VC 0 at input 4 (front: 2).
2 | network_0/router_level3_0 |   Acquiring assigned VC 0 at output 12.
2 | network_0/router_level3_0/buf_4/vc_0 | Changing state from vc_alloc to active.
2 | network_0/router_level3_0 | Completed VC allocation for VC 0 at input 5 (front: 3).
2 | network_0/router_level3_0 |   Acquiring assigned VC 0 at output 15.
2 | network_0/router_level3_0/buf_5/vc_0 | Changing state from vc_alloc to active.
2 | network_0/router_level3_1 | Adding flit 4 to VC 0 at input 0 (state: idle, empty).
2 | network_0/router_level3_1 | Using precomputed lookahead routing information for VC 0 at input 0 (front: 4).
2 | network_0/router_level3_1/buf_0/vc_0 | Changing state from idle to vc_alloc.
2 | network_0/router_level3_1 | Adding flit 5 to VC 0 at input 1 (state: idle, empty).
2 | network_0/router_level3_1 | Using precomputed lookahead routing information for VC 0 at input 1 (front: 5).
2 | network_0/router_level3_1/buf_1/vc_0 | Changing state from idle to vc_alloc.
2 | network_0/router_level3_1 | Adding flit 6 to VC 0 at input 3 (state: idle, empty).
2 | network_0/router_level3_1 | Using precomputed lookahead routing information for VC 0 at input 3 (front: 6).
2 | network_0/router_level3_1/buf_3/vc_0 | Changing state from idle to vc_alloc.
2 | network_0/router_level3_1 | Adding flit 7 to VC 0 at input 4 (state: idle, empty).
2 | network_0/router_level3_1 | Using precomputed lookahead routing information for VC 0 at input 4 (front: 7).
2 | network_0/router_level3_1/buf_4/vc_0 | Changing state from idle to vc_alloc.
2 | network_0/router_level3_1 | Adding flit 8 to VC 0 at input 5 (state: idle, empty).
2 | network_0/router_level3_1 | Using precomputed lookahead routing information for VC 0 at input 5 (front: 8).
2 | network_0/router_level3_1/buf_5/vc_0 | Changing state from idle to vc_alloc.
2 | network_0/router_level3_1 | Adding flit 9 to VC 0 at input 6 (state: idle, empty).
2 | network_0/router_level3_1 | Using precomputed lookahead routing information for VC 0 at input 6 (front: 9).
2 | network_0/router_level3_1/buf_6/vc_0 | Changing state from idle to vc_alloc.
2 | network_0/router_level3_1 | Adding flit 10 to VC 0 at input 7 (state: idle, empty).
2 | network_0/router_level3_1 | Using precomputed lookahead routing information for VC 0 at input 7 (front: 10).
2 | network_0/router_level3_1/buf_7/vc_0 | Changing state from idle to vc_alloc.
2 | network_0/router_level3_1 | Beginning VC allocation for VC 0 at input 0 (front: 4).
2 | network_0/router_level3_1 |   Requesting VC 0 at output 13 (in_pri: 0, out_pri: 0).
2 | network_0/router_level3_1 |   Requesting VC 1 at output 13 (in_pri: 0, out_pri: 0).
2 | network_0/router_level3_1 |   Requesting VC 2 at output 13 (in_pri: 0, out_pri: 0).
2 | network_0/router_level3_1 |   Requesting VC 3 at output 13 (in_pri: 0, out_pri: 0).
2 | network_0/router_level3_1 | Beginning VC allocation for VC 0 at input 1 (front: 5).
2 | network_0/router_level3_1 |   Requesting VC 0 at output 12 (in_pri: 0, out_pri: 0).
2 | network_0/router_level3_1 |   Requesting VC 1 at output 12 (in_pri: 0, out_pri: 0).
2 | network_0/router_level3_1 |   Requesting VC 2 at output 12 (in_pri: 0, out_pri: 0).
2 | network_0/router_level3_1 |   Requesting VC 3 at output 12 (in_pri: 0, out_pri: 0).
2 | network_0/router_level3_1 | Beginning VC allocation for VC 0 at input 3 (front: 6).
2 | network_0/router_level3_1 |   Requesting VC 0 at output 13 (in_pri: 0, out_pri: 0).
2 | network_0/router_level3_1 |   Requesting VC 1 at output 13 (in_pri: 0, out_pri: 0).
2 | network_0/router_level3_1 |   Requesting VC 2 at output 13 (in_pri: 0, out_pri: 0).
2 | network_0/router_level3_1 |   Requesting VC 3 at output 13 (in_pri: 0, out_pri: 0).
2 | network_0/router_level3_1 | Beginning VC allocation for VC 0 at input 4 (front: 7).
2 | network_0/router_level3_1 |   Requesting VC 0 at output 13 (in_pri: 0, out_pri: 0).
2 | network_0/router_level3_1 |   Requesting VC 1 at output 13 (in_pri: 0, out_pri: 0).
2 | network_0/router_level3_1 |   Requesting VC 2 at output 13 (in_pri: 0, out_pri: 0).
2 | network_0/router_level3_1 |   Requesting VC 3 at output 13 (in_pri: 0, out_pri: 0).
2 | network_0/router_level3_1 | Beginning VC allocation for VC 0 at input 5 (front: 8).
2 | network_0/router_level3_1 |   Requesting VC 0 at output 13 (in_pri: 0, out_pri: 0).
2 | network_0/router_level3_1 |   Requesting VC 1 at output 13 (in_pri: 0, out_pri: 0).
2 | network_0/router_level3_1 |   Requesting VC 2 at output 13 (in_pri: 0, out_pri: 0).
2 | network_0/router_level3_1 |   Requesting VC 3 at output 13 (in_pri: 0, out_pri: 0).
2 | network_0/router_level3_1 | Beginning VC allocation for VC 0 at input 6 (front: 9).
2 | network_0/router_level3_1 |   Requesting VC 0 at output 15 (in_pri: 0, out_pri: 0).
2 | network_0/router_level3_1 |   Requesting VC 1 at output 15 (in_pri: 0, out_pri: 0).
2 | network_0/router_level3_1 |   Requesting VC 2 at output 15 (in_pri: 0, out_pri: 0).
2 | network_0/router_level3_1 |   Requesting VC 3 at output 15 (in_pri: 0, out_pri: 0).
2 | network_0/router_level3_1 | Beginning VC allocation for VC 0 at input 7 (front: 10).
2 | network_0/router_level3_1 |   Requesting VC 0 at output 14 (in_pri: 0, out_pri: 0).
2 | network_0/router_level3_1 |   Requesting VC 1 at output 14 (in_pri: 0, out_pri: 0).
2 | network_0/router_level3_1 |   Requesting VC 2 at output 14 (in_pri: 0, out_pri: 0).
2 | network_0/router_level3_1 |   Requesting VC 3 at output 14 (in_pri: 0, out_pri: 0).
2 | network_0/router_level3_1/vc_allocator | Input requests = [ 0 -> [ 52@0 53@0 54@0 55@0 ]  4 -> [ 48@0 49@0 50@0 51@0 ]  12 -> [ 52@0 53@0 54@0 55@0 ]  16 -> [ 52@0 53@0 54@0 55@0 ]  20 -> [ 52@0 53@0 54@0 55@0 ]  24 -> [ 60@0 61@0 62@0 63@0 ]  28 -> [ 56@0 57@0 58@0 59@0 ]  ], output requests = [ 48 -> [ 4@0 ]  49 -> [ 4@0 ]  50 -> [ 4@0 ]  51 -> [ 4@0 ]  52 -> [ 0@0 12@0 16@0 20@0 ]  53 -> [ 0@0 12@0 16@0 20@0 ]  54 -> [ 0@0 12@0 16@0 20@0 ]  55 -> [ 0@0 12@0 16@0 20@0 ]  56 -> [ 28@0 ]  57 -> [ 28@0 ]  58 -> [ 28@0 ]  59 -> [ 28@0 ]  60 -> [ 24@0 ]  61 -> [ 24@0 ]  62 -> [ 24@0 ]  63 -> [ 24@0 ]  ].
2 | network_0/router_level3_1/vc_allocator | Input grants = [ 0 -> 52  4 -> 48  24 -> 60  28 -> 56  ], output grants = [ 48 -> 4  52 -> 0  56 -> 28  60 -> 24  ].
2 | network_0/router_level3_1 | Assigning VC 0 at output 13 to VC 0 at input 0.
2 | network_0/router_level3_1 | Assigning VC 0 at output 12 to VC 0 at input 1.
2 | network_0/router_level3_1 | VC allocation failed for VC 0 at input 3.
2 | network_0/router_level3_1 | VC allocation failed for VC 0 at input 4.
2 | network_0/router_level3_1 | VC allocation failed for VC 0 at input 5.
2 | network_0/router_level3_1 | Assigning VC 0 at output 15 to VC 0 at input 6.
2 | network_0/router_level3_1 | Assigning VC 0 at output 14 to VC 0 at input 7.
2 | network_0/router_level3_1 | Completed VC allocation for VC 0 at input 0 (front: 4).
2 | network_0/router_level3_1 |   Acquiring assigned VC 0 at output 13.
2 | network_0/router_level3_1/buf_0/vc_0 | Changing state from vc_alloc to active.
2 | network_0/router_level3_1 | Completed VC allocation for VC 0 at input 1 (front: 5).
2 | network_0/router_level3_1 |   Acquiring assigned VC 0 at output 12.
2 | network_0/router_level3_1/buf_1/vc_0 | Changing state from vc_alloc to active.
2 | network_0/router_level3_1 | Completed VC allocation for VC 0 at input 3 (front: 6).
2 | network_0/router_level3_1 |   No output VC allocated.
2 | network_0/router_level3_1 | Completed VC allocation for VC 0 at input 4 (front: 7).
2 | network_0/router_level3_1 |   No output VC allocated.
2 | network_0/router_level3_1 | Completed VC allocation for VC 0 at input 5 (front: 8).
2 | network_0/router_level3_1 |   No output VC allocated.
2 | network_0/router_level3_1 | Completed VC allocation for VC 0 at input 6 (front: 9).
2 | network_0/router_level3_1 |   Acquiring assigned VC 0 at output 15.
2 | network_0/router_level3_1/buf_6/vc_0 | Changing state from vc_alloc to active.
2 | network_0/router_level3_1 | Completed VC allocation for VC 0 at input 7 (front: 10).
2 | network_0/router_level3_1 |   Acquiring assigned VC 0 at output 14.
2 | network_0/router_level3_1/buf_7/vc_0 | Changing state from vc_alloc to active.
3 | network_0/router_level3_0 | Beginning switch allocation for VC 0 at input 3 (front: 1).
3 | network_0/router_level3_0 |   Requesting output 13.0 (non-spec, pri: 0).
3 | network_0/router_level3_0 | Beginning switch allocation for VC 0 at input 4 (front: 2).
3 | network_0/router_level3_0 |   Requesting output 12.0 (non-spec, pri: 0).
3 | network_0/router_level3_0 | Beginning switch allocation for VC 0 at input 5 (front: 3).
3 | network_0/router_level3_0 |   Requesting output 15.0 (non-spec, pri: 0).
3 | network_0/router_level3_0/sw_allocator | Input requests = [ 1 -> [ 11@0 ]  3 -> [ 13@0 ]  4 -> [ 12@0 ]  5 -> [ 15@0 ]  ], output requests = [ 11 -> [ 1@0 ]  12 -> [ 4@0 ]  13 -> [ 3@0 ]  15 -> [ 5@0 ]  ].
3 | network_0/router_level3_0/sw_allocator | Input grants = [ 1 -> 11  3 -> 13  4 -> 12  5 -> 15  ], output grants = [ 11 -> 1  12 -> 4  13 -> 3  15 -> 5  ].
3 | network_0/router_level3_0 | Assigning output 13.0 to VC 0 at input 3.0.
3 | network_0/router_level3_0 | Assigning output 12.0 to VC 0 at input 4.0.
3 | network_0/router_level3_0 | Assigning output 15.0 to VC 0 at input 5.0.
3 | network_0/router_level3_0 | Completed switch allocation for VC 0 at input 3 (front: 1).
3 | network_0/router_level3_0 |   Scheduling switch connection from input 3.0 to output 13.0.
3 | network_0/router_level3_0 | Updating lookahead routing information for flit 1.
3 | network_0/router_level3_0 | Completed switch allocation for VC 0 at input 4 (front: 2).
3 | network_0/router_level3_0 |   Scheduling switch connection from input 4.0 to output 12.0.
3 | network_0/router_level3_0 | Updating lookahead routing information for flit 2.
3 | network_0/router_level3_0 | Completed switch allocation for VC 0 at input 5 (front: 3).
3 | network_0/router_level3_0 |   Scheduling switch connection from input 5.0 to output 15.0.
3 | network_0/router_level3_0 | Updating lookahead routing information for flit 3.
3 | network_0/router_level3_1 | Beginning VC allocation for VC 0 at input 3 (front: 6).
3 | network_0/router_level3_1 |   VC 0 at output 13 is in use by VC 0 at input 0 (front flit: 4).
3 | network_0/router_level3_1 |   Requesting VC 1 at output 13 (in_pri: 0, out_pri: 0).
3 | network_0/router_level3_1 |   Requesting VC 2 at output 13 (in_pri: 0, out_pri: 0).
3 | network_0/router_level3_1 |   Requesting VC 3 at output 13 (in_pri: 0, out_pri: 0).
3 | network_0/router_level3_1 | Beginning VC allocation for VC 0 at input 4 (front: 7).
3 | network_0/router_level3_1 |   VC 0 at output 13 is in use by VC 0 at input 0 (front flit: 4).
3 | network_0/router_level3_1 |   Requesting VC 1 at output 13 (in_pri: 0, out_pri: 0).
3 | network_0/router_level3_1 |   Requesting VC 2 at output 13 (in_pri: 0, out_pri: 0).
3 | network_0/router_level3_1 |   Requesting VC 3 at output 13 (in_pri: 0, out_pri: 0).
3 | network_0/router_level3_1 | Beginning VC allocation for VC 0 at input 5 (front: 8).
3 | network_0/router_level3_1 |   VC 0 at output 13 is in use by VC 0 at input 0 (front flit: 4).
3 | network_0/router_level3_1 |   Requesting VC 1 at output 13 (in_pri: 0, out_pri: 0).
3 | network_0/router_level3_1 |   Requesting VC 2 at output 13 (in_pri: 0, out_pri: 0).
3 | network_0/router_level3_1 |   Requesting VC 3 at output 13 (in_pri: 0, out_pri: 0).
3 | network_0/router_level3_1/vc_allocator | Input requests = [ 5 -> [ 53@0 54@0 55@0 ]  12 -> [ 53@0 54@0 55@0 ]  16 -> [ 53@0 54@0 55@0 ]  17 -> [ 36@0 37@0 38@0 39@0 ]  20 -> [ 53@0 54@0 55@0 ]  21 -> [ 57@0 58@0 59@0 ]  25 -> [ 36@0 37@0 38@0 39@0 ]  ], output requests = [ 36 -> [ 17@0 25@0 ]  37 -> [ 17@0 25@0 ]  38 -> [ 17@0 25@0 ]  39 -> [ 17@0 25@0 ]  53 -> [ 5@0 12@0 16@0 20@0 ]  54 -> [ 5@0 12@0 16@0 20@0 ]  55 -> [ 5@0 12@0 16@0 20@0 ]  57 -> [ 21@0 ]  58 -> [ 21@0 ]  59 -> [ 21@0 ]  ].
3 | network_0/router_level3_1/vc_allocator | Input grants = [ 5 -> 53  17 -> 36  21 -> 57  ], output grants = [ 36 -> 17  53 -> 5  57 -> 21  ].
3 | network_0/router_level3_1 | VC allocation failed for VC 0 at input 3.
3 | network_0/router_level3_1 | VC allocation failed for VC 0 at input 4.
3 | network_0/router_level3_1 | VC allocation failed for VC 0 at input 5.
3 | network_0/router_level3_1 | Beginning switch allocation for VC 0 at input 0 (front: 4).
3 | network_0/router_level3_1 |   Requesting output 13.0 (non-spec, pri: 0).
3 | network_0/router_level3_1 | Beginning switch allocation for VC 0 at input 1 (front: 5).
3 | network_0/router_level3_1 |   Requesting output 12.0 (non-spec, pri: 0).
3 | network_0/router_level3_1 | Beginning switch allocation for VC 0 at input 6 (front: 9).
3 | network_0/router_level3_1 |   Requesting output 15.0 (non-spec, pri: 0).
3 | network_0/router_level3_1 | Beginning switch allocation for VC 0 at input 7 (front: 10).
3 | network_0/router_level3_1 |   Requesting output 14.0 (non-spec, pri: 0).
3 | network_0/router_level3_1/sw_allocator | Input requests = [ 0 -> [ 13@0 ]  1 -> [ 12@0 ]  6 -> [ 15@0 ]  7 -> [ 14@0 ]  ], output requests = [ 12 -> [ 1@0 ]  13 -> [ 0@0 ]  14 -> [ 7@0 ]  15 -> [ 6@0 ]  ].
3 | network_0/router_level3_1/sw_allocator | Input grants = [ 0 -> 13  1 -> 12  6 -> 15  7 -> 14  ], output grants = [ 12 -> 1  13 -> 0  14 -> 7  15 -> 6  ].
3 | network_0/router_level3_1 | Assigning output 13.0 to VC 0 at input 0.0.
3 | network_0/router_level3_1 | Assigning output 12.0 to VC 0 at input 1.0.
3 | network_0/router_level3_1 | Assigning output 15.0 to VC 0 at input 6.0.
3 | network_0/router_level3_1 | Assigning output 14.0 to VC 0 at input 7.0.
3 | network_0/router_level3_1 | Completed VC allocation for VC 0 at input 3 (front: 6).
3 | network_0/router_level3_1 |   No output VC allocated.
3 | network_0/router_level3_1 | Completed VC allocation for VC 0 at input 4 (front: 7).
3 | network_0/router_level3_1 |   No output VC allocated.
3 | network_0/router_level3_1 | Completed VC allocation for VC 0 at input 5 (front: 8).
3 | network_0/router_level3_1 |   No output VC allocated.
3 | network_0/router_level3_1 | Completed switch allocation for VC 0 at input 0 (front: 4).
3 | network_0/router_level3_1 |   Scheduling switch connection from input 0.0 to output 13.0.
3 | network_0/router_level3_1 | Updating lookahead routing information for flit 4.
3 | network_0/router_level3_1 | Completed switch allocation for VC 0 at input 1 (front: 5).
3 | network_0/router_level3_1 |   Scheduling switch connection from input 1.0 to output 12.0.
3 | network_0/router_level3_1 | Updating lookahead routing information for flit 5.
3 | network_0/router_level3_1 | Completed switch allocation for VC 0 at input 6 (front: 9).
3 | network_0/router_level3_1 |   Scheduling switch connection from input 6.0 to output 15.0.
3 | network_0/router_level3_1 | Updating lookahead routing information for flit 9.
3 | network_0/router_level3_1 | Completed switch allocation for VC 0 at input 7 (front: 10).
3 | network_0/router_level3_1 |   Scheduling switch connection from input 7.0 to output 14.0.
3 | network_0/router_level3_1 | Updating lookahead routing information for flit 10.
4 | network_0/router_level3_0 | Beginning crossbar traversal for flit 1 from input 3.0 to output 13.0.
4 | network_0/router_level3_0 | Beginning crossbar traversal for flit 2 from input 4.0 to output 12.0.
4 | network_0/router_level3_0 | Beginning crossbar traversal for flit 3 from input 5.0 to output 15.0.
4 | network_0/router_level3_0 | Completed crossbar traversal for flit 1 from input 3.0 to output 13.0.
4 | network_0/router_level3_0 | Buffering flit 1 at output 13.
4 | network_0/router_level3_0 | Completed crossbar traversal for flit 2 from input 4.0 to output 12.0.
4 | network_0/router_level3_0 | Buffering flit 2 at output 12.
4 | network_0/router_level3_0 | Completed crossbar traversal for flit 3 from input 5.0 to output 15.0.
4 | network_0/router_level3_0 | Buffering flit 3 at output 15.
4 | network_0/router_level3_1 | Beginning VC allocation for VC 0 at input 3 (front: 6).
4 | network_0/router_level3_1 |   Requesting VC 0 at output 13 (in_pri: 0, out_pri: 0).
4 | network_0/router_level3_1 |   VC 1 at output 13 is in use by VC 1 at input 1 (front flit: 2831).
4 | network_0/router_level3_1 |   Requesting VC 2 at output 13 (in_pri: 0, out_pri: 0).
4 | network_0/router_level3_1 |   Requesting VC 3 at output 13 (in_pri: 0, out_pri: 0).
4 | network_0/router_level3_1 | Beginning VC allocation for VC 0 at input 4 (front: 7).
4 | network_0/router_level3_1 |   Requesting VC 0 at output 13 (in_pri: 0, out_pri: 0).
4 | network_0/router_level3_1 |   VC 1 at output 13 is in use by VC 1 at input 1 (front flit: 2831).
4 | network_0/router_level3_1 |   Requesting VC 2 at output 13 (in_pri: 0, out_pri: 0).
4 | network_0/router_level3_1 |   Requesting VC 3 at output 13 (in_pri: 0, out_pri: 0).
4 | network_0/router_level3_1 | Beginning VC allocation for VC 0 at input 5 (front: 8).
4 | network_0/router_level3_1 |   Requesting VC 0 at output 13 (in_pri: 0, out_pri: 0).
4 | network_0/router_level3_1 |   VC 1 at output 13 is in use by VC 1 at input 1 (front flit: 2831).
4 | network_0/router_level3_1 |   Requesting VC 2 at output 13 (in_pri: 0, out_pri: 0).
4 | network_0/router_level3_1 |   Requesting VC 3 at output 13 (in_pri: 0, out_pri: 0).
4 | network_0/router_level3_1/vc_allocator | Input requests = [ 1 -> [ 60@0 61@0 62@0 63@0 ]  6 -> [ 40@0 41@0 42@0 43@0 ]  12 -> [ 52@0 54@0 55@0 ]  16 -> [ 52@0 54@0 55@0 ]  18 -> [ 32@0 33@0 34@0 35@0 ]  20 -> [ 52@0 54@0 55@0 ]  22 -> [ 37@0 38@0 39@0 ]  25 -> [ 37@0 38@0 39@0 ]  ], output requests = [ 32 -> [ 18@0 ]  33 -> [ 18@0 ]  34 -> [ 18@0 ]  35 -> [ 18@0 ]  37 -> [ 22@0 25@0 ]  38 -> [ 22@0 25@0 ]  39 -> [ 22@0 25@0 ]  40 -> [ 6@0 ]  41 -> [ 6@0 ]  42 -> [ 6@0 ]  43 -> [ 6@0 ]  52 -> [ 12@0 16@0 20@0 ]  54 -> [ 12@0 16@0 20@0 ]  55 -> [ 12@0 16@0 20@0 ]  60 -> [ 1@0 ]  61 -> [ 1@0 ]  62 -> [ 1@0 ]  63 -> [ 1@0 ]  ].
4 | network_0/router_level3_1/vc_allocator | Input grants = [ 1 -> 60  6 -> 40  12 -> 52  18 -> 32  22 -> 37  ], output grants = [ 32 -> 18  37 -> 22  40 -> 6  52 -> 12  60 -> 1  ].
4 | network_0/router_level3_1 | Assigning VC 0 at output 13 to VC 0 at input 3.
4 | network_0/router_level3_1 | VC allocation failed for VC 0 at input 4.
4 | network_0/router_level3_1 | VC allocation failed for VC 0 at input 5.
4 | network_0/router_level3_1 | Beginning crossbar traversal for flit 4 from input 0.0 to output 13.0.
4 | network_0/router_level3_1 | Beginning crossbar traversal for flit 5 from input 1.0 to output 12.0.
4 | network_0/router_level3_1 | Beginning crossbar traversal for flit 9 from input 6.0 to output 15.0.
4 | network_0/router_level3_1 | Beginning crossbar traversal for flit 10 from input 7.0 to output 14.0.
4 | network_0/router_level3_1 | Completed VC allocation for VC 0 at input 3 (front: 6).
4 | network_0/router_level3_1 |   Acquiring assigned VC 0 at output 13.
4 | network_0/router_level3_1/buf_3/vc_0 | Changing state from vc_alloc to active.
4 | network_0/router_level3_1 | Completed VC allocation for VC 0 at input 4 (front: 7).
4 | network_0/router_level3_1 |   No output VC allocated.
4 | network_0/router_level3_1 | Completed VC allocation for VC 0 at input 5 (front: 8).
4 | network_0/router_level3_1 |   No output VC allocated.
4 | network_0/router_level3_1 | Completed crossbar traversal for flit 4 from input 0.0 to output 13.0.
4 | network_0/router_level3_1 | Buffering flit 4 at output 13.
4 | network_0/router_level3_1 | Completed crossbar traversal for flit 5 from input 1.0 to output 12.0.
4 | network_0/router_level3_1 | Buffering flit 5 at output 12.
4 | network_0/router_level3_1 | Completed crossbar traversal for flit 9 from input 6.0 to output 15.0.
4 | network_0/router_level3_1 | Buffering flit 9 at output 15.
4 | network_0/router_level3_1 | Completed crossbar traversal for flit 10 from input 7.0 to output 14.0.
4 | network_0/router_level3_1 | Buffering flit 10 at output 14.
4 | network_0/router_level3_0 | Sending flit 2 to channel at output 12.
4 | network_0/router_level3_0 | Sending flit 1 to channel at output 13.
4 | network_0/router_level3_0 | Sending flit 3 to channel at output 15.
4 | network_0/router_level3_1 | Sending flit 5 to channel at output 12.
4 | network_0/router_level3_1 | Sending flit 4 to channel at output 13.
4 | network_0/router_level3_1 | Sending flit 10 to channel at output 14.
4 | network_0/router_level3_1 | Sending flit 9 to channel at output 15.
5 | network_0/network_0_fchan_20484 | Beginning channel traversal for flit 2 with delay 1.
5 | network_0/network_0_fchan_20485 | Beginning channel traversal for flit 1 with delay 1.
5 | network_0/network_0_fchan_20487 | Beginning channel traversal for flit 3 with delay 1.
5 | network_0/network_0_fchan_20492 | Beginning channel traversal for flit 5 with delay 1.
5 | network_0/network_0_fchan_20493 | Beginning channel traversal for flit 4 with delay 1.
5 | network_0/network_0_fchan_20494 | Beginning channel traversal for flit 10 with delay 1.
5 | network_0/network_0_fchan_20495 | Beginning channel traversal for flit 9 with delay 1.
5 | network_0/router_level3_1 | Beginning VC allocation for VC 0 at input 4 (front: 7).
5 | network_0/router_level3_1 |   VC 0 at output 13 is in use by VC 0 at input 3 (front flit: 6).
5 | network_0/router_level3_1 |   Requesting VC 1 at output 13 (in_pri: 0, out_pri: 0).
5 | network_0/router_level3_1 |   Requesting VC 2 at output 13 (in_pri: 0, out_pri: 0).
5 | network_0/router_level3_1 |   Requesting VC 3 at output 13 (in_pri: 0, out_pri: 0).
5 | network_0/router_level3_1 | Beginning VC allocation for VC 0 at input 5 (front: 8).
5 | network_0/router_level3_1 |   VC 0 at output 13 is in use by VC 0 at input 3 (front flit: 6).
5 | network_0/router_level3_1 |   Requesting VC 1 at output 13 (in_pri: 0, out_pri: 0).
5 | network_0/router_level3_1 |   Requesting VC 2 at output 13 (in_pri: 0, out_pri: 0).
5 | network_0/router_level3_1 |   Requesting VC 3 at output 13 (in_pri: 0, out_pri: 0).
5 | network_0/router_level3_1/vc_allocator | Input requests = [ 2 -> [ 53@0 54@0 55@0 ]  7 -> [ 41@0 42@0 43@0 ]  8 -> [ 44@0 45@0 46@0 47@0 ]  16 -> [ 53@0 54@0 55@0 ]  19 -> [ 41@0 42@0 43@0 ]  20 -> [ 53@0 54@0 55@0 ]  23 -> [ 41@0 42@0 43@0 ]  25 -> [ 36@0 38@0 39@0 ]  26 -> [ 33@0 34@0 35@0 ]  29 -> [ 56@0 57@0 58@0 59@0 ]  ], output requests = [ 33 -> [ 26@0 ]  34 -> [ 26@0 ]  35 -> [ 26@0 ]  36 -> [ 25@0 ]  38 -> [ 25@0 ]  39 -> [ 25@0 ]  41 -> [ 7@0 19@0 23@0 ]  42 -> [ 7@0 19@0 23@0 ]  43 -> [ 7@0 19@0 23@0 ]  44 -> [ 8@0 ]  45 -> [ 8@0 ]  46 -> [ 8@0 ]  47 -> [ 8@0 ]  53 -> [ 2@0 16@0 20@0 ]  54 -> [ 2@0 16@0 20@0 ]  55 -> [ 2@0 16@0 20@0 ]  56 -> [ 29@0 ]  57 -> [ 29@0 ]  58 -> [ 29@0 ]  59 -> [ 29@0 ]  ].
5 | network_0/router_level3_1/vc_allocator | Input grants = [ 7 -> 41  8 -> 44  16 -> 53  25 -> 36  26 -> 33  29 -> 56  ], output grants = [ 33 -> 26  36 -> 25  41 -> 7  44 -> 8  53 -> 16  56 -> 29  ].
5 | network_0/router_level3_1 | Assigning VC 1 at output 13 to VC 0 at input 4.
5 | network_0/router_level3_1 | VC allocation failed for VC 0 at input 5.
5 | network_0/router_level3_1 | Beginning switch allocation for VC 0 at input 3 (front: 6).
5 | network_0/router_level3_1 |   Requesting output 13.0 (non-spec, pri: 0).
5 | network_0/router_level3_1/sw_allocator | Input requests = [ 0 -> [ 15@0 ]  1 -> [ 10@0 ]  3 -> [ 13@0 ]  4 -> [ 8@0 ]  5 -> [ 9@0 ]  ], output requests = [ 8 -> [ 4@0 ]  9 -> [ 5@0 ]  10 -> [ 1@0 ]  13 -> [ 3@0 ]  15 -> [ 0@0 ]  ].
5 | network_0/router_level3_1/sw_allocator | Input grants = [ 0 -> 15  1 -> 10  3 -> 13  4 -> 8  5 -> 9  ], output grants = [ 8 -> 4  9 -> 5  10 -> 1  13 -> 3  15 -> 0  ].
5 | network_0/router_level3_1 | Assigning output 13.0 to VC 0 at input 3.0.
5 | network_0/router_level3_1 | Completed VC allocation for VC 0 at input 4 (front: 7).
5 | network_0/router_level3_1 |   Acquiring assigned VC 1 at output 13.
5 | network_0/router_level3_1/buf_4/vc_0 | Changing state from vc_alloc to active.
5 | network_0/router_level3_1 | Completed VC allocation for VC 0 at input 5 (front: 8).
5 | network_0/router_level3_1 |   No output VC allocated.
5 | network_0/router_level3_1 | Completed switch allocation for VC 0 at input 3 (front: 6).
5 | network_0/router_level3_1 |   Scheduling switch connection from input 3.0 to output 13.0.
5 | network_0/router_level3_1 | Updating lookahead routing information for flit 6.
5 | network_0/network_0_fchan_20484 | Completed channel traversal for flit 2.
5 | network_0/network_0_fchan_20485 | Completed channel traversal for flit 1.
5 | network_0/network_0_fchan_20487 | Completed channel traversal for flit 3.
5 | network_0/network_0_fchan_20492 | Completed channel traversal for flit 5.
5 | network_0/network_0_fchan_20493 | Completed channel traversal for flit 4.
5 | network_0/network_0_fchan_20494 | Completed channel traversal for flit 10.
5 | network_0/network_0_fchan_20495 | Completed channel traversal for flit 9.
6 | network_0/router_level2_4 | Received flit 2 from channel at input 0.
6 | network_0/router_level2_4 | Received flit 5 from channel at input 1.
6 | network_0/router_level2_5 | Received flit 1 from channel at input 0.
6 | network_0/router_level2_5 | Received flit 4 from channel at input 1.
6 | network_0/router_level2_6 | Received flit 10 from channel at input 1.
6 | network_0/router_level2_7 | Received flit 3 from channel at input 0.
6 | network_0/router_level2_7 | Received flit 9 from channel at input 1.
6 | network_0/router_level2_4 | Adding flit 2 to VC 0 at input 0 (state: idle, empty).
6 | network_0/router_level2_4 | Using precomputed lookahead routing information for VC 0 at input 0 (front: 2).
6 | network_0/router_level2_4/buf_0/vc_0 | Changing state from idle to vc_alloc.
6 | network_0/router_level2_4 | Adding flit 5 to VC 0 at input 1 (state: idle, empty).
6 | network_0/router_level2_4 | Using precomputed lookahead routing information for VC 0 at input 1 (front: 5).
6 | network_0/router_level2_4/buf_1/vc_0 | Changing state from idle to vc_alloc.
6 | network_0/router_level2_4 | Beginning VC allocation for VC 0 at input 0 (front: 2).
6 | network_0/router_level2_4 |   Requesting VC 0 at output 12 (in_pri: 0, out_pri: 0).
6 | network_0/router_level2_4 |   Requesting VC 1 at output 12 (in_pri: 0, out_pri: 0).
6 | network_0/router_level2_4 |   Requesting VC 2 at output 12 (in_pri: 0, out_pri: 0).
6 | network_0/router_level2_4 |   Requesting VC 3 at output 12 (in_pri: 0, out_pri: 0).
6 | network_0/router_level2_4 | Beginning VC allocation for VC 0 at input 1 (front: 5).
6 | network_0/router_level2_4 |   Requesting VC 0 at output 12 (in_pri: 0, out_pri: 0).
6 | network_0/router_level2_4 |   Requesting VC 1 at output 12 (in_pri: 0, out_pri: 0).
6 | network_0/router_level2_4 |   Requesting VC 2 at output 12 (in_pri: 0, out_pri: 0).
6 | network_0/router_level2_4 |   Requesting VC 3 at output 12 (in_pri: 0, out_pri: 0).
6 | network_0/router_level2_4/vc_allocator | Input requests = [ 0 -> [ 48@0 49@0 50@0 51@0 ]  4 -> [ 48@0 49@0 50@0 51@0 ]  ], output requests = [ 48 -> [ 0@0 4@0 ]  49 -> [ 0@0 4@0 ]  50 -> [ 0@0 4@0 ]  51 -> [ 0@0 4@0 ]  ].
6 | network_0/router_level2_4/vc_allocator | Input grants = [ 0 -> 48  ], output grants = [ 48 -> 0  ].
6 | network_0/router_level2_4 | Assigning VC 0 at output 12 to VC 0 at input 0.
6 | network_0/router_level2_4 | VC allocation failed for VC 0 at input 1.
6 | network_0/router_level2_4 | Completed VC allocation for VC 0 at input 0 (front: 2).
6 | network_0/router_level2_4 |   Acquiring assigned VC 0 at output 12.
6 | network_0/router_level2_4/buf_0/vc_0 | Changing state from vc_alloc to active.
6 | network_0/router_level2_4 | Completed VC allocation for VC 0 at input 1 (front: 5).
6 | network_0/router_level2_4 |   No output VC allocated.
6 | network_0/router_level2_5 | Adding flit 1 to VC 0 at input 0 (state: idle, empty).
6 | network_0/router_level2_5 | Using precomputed lookahead routing information for VC 0 at input 0 (front: 1).
6 | network_0/router_level2_5/buf_0/vc_0 | Changing state from idle to vc_alloc.
6 | network_0/router_level2_5 | Adding flit 4 to VC 0 at input 1 (state: idle, empty).
6 | network_0/router_level2_5 | Using precomputed lookahead routing information for VC 0 at input 1 (front: 4).
6 | network_0/router_level2_5/buf_1/vc_0 | Changing state from idle to vc_alloc.
6 | network_0/router_level2_5 | Beginning VC allocation for VC 0 at input 0 (front: 1).
6 | network_0/router_level2_5 |   Requesting VC 0 at output 14 (in_pri: 0, out_pri: 0).
6 | network_0/router_level2_5 |   Requesting VC 1 at output 14 (in_pri: 0, out_pri: 0).
6 | network_0/router_level2_5 |   Requesting VC 2 at output 14 (in_pri: 0, out_pri: 0).
6 | network_0/router_level2_5 |   Requesting VC 3 at output 14 (in_pri: 0, out_pri: 0).
6 | network_0/router_level2_5 | Beginning VC allocation for VC 0 at input 1 (front: 4).
6 | network_0/router_level2_5 |   Requesting VC 0 at output 12 (in_pri: 0, out_pri: 0).
6 | network_0/router_level2_5 |   Requesting VC 1 at output 12 (in_pri: 0, out_pri: 0).
6 | network_0/router_level2_5 |   Requesting VC 2 at output 12 (in_pri: 0, out_pri: 0).
6 | network_0/router_level2_5 |   Requesting VC 3 at output 12 (in_pri: 0, out_pri: 0).
6 | network_0/router_level2_5/vc_allocator | Input requests = [ 0 -> [ 56@0 57@0 58@0 59@0 ]  4 -> [ 48@0 49@0 50@0 51@0 ]  12 -> [ 32@0 33@0 34@0 35@0 ]  16 -> [ 32@0 33@0 34@0 35@0 ]  24 -> [ 40@0 41@0 42@0 43@0 ]  28 -> [ 52@0 53@0 54@0 55@0 ]  ], output requests = [ 32 -> [ 12@0 16@0 ]  33 -> [ 12@0 16@0 ]  34 -> [ 12@0 16@0 ]  35 -> [ 12@0 16@0 ]  40 -> [ 24@0 ]  41 -> [ 24@0 ]  42 -> [ 24@0 ]  43 -> [ 24@0 ]  48 -> [ 4@0 ]  49 -> [ 4@0 ]  50 -> [ 4@0 ]  51 -> [ 4@0 ]  52 -> [ 28@0 ]  53 -> [ 28@0 ]  54 -> [ 28@0 ]  55 -> [ 28@0 ]  56 -> [ 0@0 ]  57 -> [ 0@0 ]  58 -> [ 0@0 ]  59 -> [ 0@0 ]  ].
6 | network_0/router_level2_5/vc_allocator | Input grants = [ 0 -> 56  4 -> 48  12 -> 32  24 -> 40  28 -> 52  ], output grants = [ 32 -> 12  40 -> 24  48 -> 4  52 -> 28  56 -> 0  ].
6 | network_0/router_level2_5 | Assigning VC 0 at output 14 to VC 0 at input 0.
6 | network_0/router_level2_5 | Assigning VC 0 at output 12 to VC 0 at input 1.
6 | network_0/router_level2_5 | Completed VC allocation for VC 0 at input 0 (front: 1).
6 | network_0/router_level2_5 |   Acquiring assigned VC 0 at output 14.
6 | network_0/router_level2_5/buf_0/vc_0 | Changing state from vc_alloc to active.
6 | network_0/router_level2_5 | Completed VC allocation for VC 0 at input 1 (front: 4).
6 | network_0/router_level2_5 |   Acquiring assigned VC 0 at output 12.
6 | network_0/router_level2_5/buf_1/vc_0 | Changing state from vc_alloc to active.
6 | network_0/router_level2_6 | Adding flit 10 to VC 0 at input 1 (state: idle, empty).
6 | network_0/router_level2_6 | Using precomputed lookahead routing information for VC 0 at input 1 (front: 10).
6 | network_0/router_level2_6/buf_1/vc_0 | Changing state from idle to vc_alloc.
6 | network_0/router_level2_6 | Beginning VC allocation for VC 0 at input 1 (front: 10).
6 | network_0/router_level2_6 |   Requesting VC 0 at output 9 (in_pri: 0, out_pri: 0).
6 | network_0/router_level2_6 |   Requesting VC 1 at output 9 (in_pri: 0, out_pri: 0).
6 | network_0/router_level2_6 |   Requesting VC 2 at output 9 (in_pri: 0, out_pri: 0).
6 | network_0/router_level2_6 |   Requesting VC 3 at output 9 (in_pri: 0, out_pri: 0).
6 | network_0/router_level2_6/vc_allocator | Input requests = [ 4 -> [ 36@0 37@0 38@0 39@0 ]  12 -> [ 56@0 57@0 58@0 59@0 ]  20 -> [ 48@0 49@0 50@0 51@0 ]  ], output requests = [ 36 -> [ 4@0 ]  37 -> [ 4@0 ]  38 -> [ 4@0 ]  39 -> [ 4@0 ]  48 -> [ 20@0 ]  49 -> [ 20@0 ]  50 -> [ 20@0 ]  51 -> [ 20@0 ]  56 -> [ 12@0 ]  57 -> [ 12@0 ]  58 -> [ 12@0 ]  59 -> [ 12@0 ]  ].
6 | network_0/router_level2_6/vc_allocator | Input grants = [ 4 -> 36  12 -> 56  20 -> 48  ], output grants = [ 36 -> 4  48 -> 20  56 -> 12  ].
6 | network_0/router_level2_6 | Assigning VC 0 at output 9 to VC 0 at input 1.
6 | network_0/router_level2_6 | Completed VC allocation for VC 0 at input 1 (front: 10).
6 | network_0/router_level2_6 |   Acquiring assigned VC 0 at output 9.
6 | network_0/router_level2_6/buf_1/vc_0 | Changing state from vc_alloc to active.
6 | network_0/router_level2_7 | Adding flit 3 to VC 0 at input 0 (state: idle, empty).
6 | network_0/router_level2_7 | Using precomputed lookahead routing information for VC 0 at input 0 (front: 3).
6 | network_0/router_level2_7/buf_0/vc_0 | Changing state from idle to vc_alloc.
6 | network_0/router_level2_7 | Adding flit 9 to VC 0 at input 1 (state: idle, empty).
6 | network_0/router_level2_7 | Using precomputed lookahead routing information for VC 0 at input 1 (front: 9).
6 | network_0/router_level2_7/buf_1/vc_0 | Changing state from idle to vc_alloc.
6 | network_0/router_level2_7 | Beginning VC allocation for VC 0 at input 0 (front: 3).
6 | network_0/router_level2_7 |   Requesting VC 0 at output 10 (in_pri: 0, out_pri: 0).
6 | network_0/router_level2_7 |   Requesting VC 1 at output 10 (in_pri: 0, out_pri: 0).
6 | network_0/router_level2_7 |   Requesting VC 2 at output 10 (in_pri: 0, out_pri: 0).
6 | network_0/router_level2_7 |   Requesting VC 3 at output 10 (in_pri: 0, out_pri: 0).
6 | network_0/router_level2_7 | Beginning VC allocation for VC 0 at input 1 (front: 9).
6 | network_0/router_level2_7 |   Requesting VC 0 at output 11 (in_pri: 0, out_pri: 0).
6 | network_0/router_level2_7 |   Requesting VC 1 at output 11 (in_pri: 0, out_pri: 0).
6 | network_0/router_level2_7 |   Requesting VC 2 at output 11 (in_pri: 0, out_pri: 0).
6 | network_0/router_level2_7 |   Requesting VC 3 at output 11 (in_pri: 0, out_pri: 0).
6 | network_0/router_level2_7/vc_allocator | Input requests = [ 0 -> [ 40@0 41@0 42@0 43@0 ]  4 -> [ 44@0 45@0 46@0 47@0 ]  8 -> [ 32@0 33@0 34@0 35@0 ]  12 -> [ 56@0 57@0 58@0 59@0 ]  16 -> [ 44@0 45@0 46@0 47@0 ]  20 -> [ 32@0 33@0 34@0 35@0 ]  ], output requests = [ 32 -> [ 8@0 20@0 ]  33 -> [ 8@0 20@0 ]  34 -> [ 8@0 20@0 ]  35 -> [ 8@0 20@0 ]  40 -> [ 0@0 ]  41 -> [ 0@0 ]  42 -> [ 0@0 ]  43 -> [ 0@0 ]  44 -> [ 4@0 16@0 ]  45 -> [ 4@0 16@0 ]  46 -> [ 4@0 16@0 ]  47 -> [ 4@0 16@0 ]  56 -> [ 12@0 ]  57 -> [ 12@0 ]  58 -> [ 12@0 ]  59 -> [ 12@0 ]  ].
6 | network_0/router_level2_7/vc_allocator | Input grants = [ 0 -> 40  4 -> 44  8 -> 32  12 -> 56  ], output grants = [ 32 -> 8  40 -> 0  44 -> 4  56 -> 12  ].
6 | network_0/router_level2_7 | Assigning VC 0 at output 10 to VC 0 at input 0.
6 | network_0/router_level2_7 | Assigning VC 0 at output 11 to VC 0 at input 1.
6 | network_0/router_level2_7 | Completed VC allocation for VC 0 at input 0 (front: 3).
6 | network_0/router_level2_7 |   Acquiring assigned VC 0 at output 10.
6 | network_0/router_level2_7/buf_0/vc_0 | Changing state from vc_alloc to active.
6 | network_0/router_level2_7 | Completed VC allocation for VC 0 at input 1 (front: 9).
6 | network_0/router_level2_7 |   Acquiring assigned VC 0 at output 11.
6 | network_0/router_level2_7/buf_1/vc_0 | Changing state from vc_alloc to active.
6 | network_0/router_level3_1 | Beginning VC allocation for VC 0 at input 5 (front: 8).
6 | network_0/router_level3_1 |   Requesting VC 0 at output 13 (in_pri: 0, out_pri: 0).
6 | network_0/router_level3_1 |   VC 1 at output 13 is in use by VC 0 at input 4 (front flit: 7).
6 | network_0/router_level3_1 |   Requesting VC 2 at output 13 (in_pri: 0, out_pri: 0).
6 | network_0/router_level3_1 |   Requesting VC 3 at output 13 (in_pri: 0, out_pri: 0).
6 | network_0/router_level3_1/vc_allocator | Input requests = [ 2 -> [ 52@0 54@0 55@0 ]  3 -> [ 37@0 38@0 39@0 ]  9 -> [ 40@0 42@0 43@0 ]  19 -> [ 40@0 42@0 43@0 ]  20 -> [ 52@0 54@0 55@0 ]  23 -> [ 40@0 42@0 43@0 ]  27 -> [ 37@0 38@0 39@0 ]  30 -> [ 57@0 58@0 59@0 ]  ], output requests = [ 37 -> [ 3@0 27@0 ]  38 -> [ 3@0 27@0 ]  39 -> [ 3@0 27@0 ]  40 -> [ 9@0 19@0 23@0 ]  42 -> [ 9@0 19@0 23@0 ]  43 -> [ 9@0 19@0 23@0 ]  52 -> [ 2@0 20@0 ]  54 -> [ 2@0 20@0 ]  55 -> [ 2@0 20@0 ]  57 -> [ 30@0 ]  58 -> [ 30@0 ]  59 -> [ 30@0 ]  ].
6 | network_0/router_level3_1/vc_allocator | Input grants = [ 9 -> 40  20 -> 52  27 -> 37  30 -> 57  ], output grants = [ 37 -> 27  40 -> 9  52 -> 20  57 -> 30  ].
6 | network_0/router_level3_1 | Assigning VC 0 at output 13 to VC 0 at input 5.
6 | network_0/router_level3_1 | Beginning switch allocation for VC 0 at input 4 (front: 7).
6 | network_0/router_level3_1 |   Requesting output 13.0 (non-spec, pri: 0).
6 | network_0/router_level3_1/sw_allocator | Input requests = [ 1 -> [ 10@0 ]  2 -> [ 11@0 ]  4 -> [ 13@0 ]  6 -> [ 8@0 9@0 ]  7 -> [ 14@0 ]  ], output requests = [ 8 -> [ 6@0 ]  9 -> [ 6@0 ]  10 -> [ 1@0 ]  11 -> [ 2@0 ]  13 -> [ 4@0 ]  14 -> [ 7@0 ]  ].
6 | network_0/router_level3_1/sw_allocator | Input grants = [ 1 -> 10  2 -> 11  4 -> 13  6 -> 8  7 -> 14  ], output grants = [ 8 -> 6  10 -> 1  11 -> 2  13 -> 4  14 -> 7  ].
6 | network_0/router_level3_1 | Assigning output 13.0 to VC 0 at input 4.0.
6 | network_0/router_level3_1 | Beginning crossbar traversal for flit 6 from input 3.0 to output 13.0.
6 | network_0/router_level3_1 | Completed VC allocation for VC 0 at input 5 (front: 8).
6 | network_0/router_level3_1 |   Acquiring assigned VC 0 at output 13.
6 | network_0/router_level3_1/buf_5/vc_0 | Changing state from vc_alloc to active.
6 | network_0/router_level3_1 | Completed switch allocation for VC 0 at input 4 (front: 7).
6 | network_0/router_level3_1 |   Scheduling switch connection from input 4.0 to output 13.0.
6 | network_0/router_level3_1 | Updating lookahead routing information for flit 7.
6 | network_0/router_level3_1 | Completed crossbar traversal for flit 6 from input 3.0 to output 13.0.
6 | network_0/router_level3_1 | Buffering flit 6 at output 13.
6 | network_0/router_level3_1 | Sending flit 6 to channel at output 13.
7 | network_0/network_0_fchan_20493 | Beginning channel traversal for flit 6 with delay 1.
7 | network_0/router_level2_4 | Beginning VC allocation for VC 0 at input 1 (front: 5).
7 | network_0/router_level2_4 |   VC 0 at output 12 is in use by VC 0 at input 0 (front flit: 2).
7 | network_0/router_level2_4 |   Requesting VC 1 at output 12 (in_pri: 0, out_pri: 0).
7 | network_0/router_level2_4 |   Requesting VC 2 at output 12 (in_pri: 0, out_pri: 0).
7 | network_0/router_level2_4 |   Requesting VC 3 at output 12 (in_pri: 0, out_pri: 0).
7 | network_0/router_level2_4/vc_allocator | Input requests = [ 1 -> [ 44@0 45@0 46@0 47@0 ]  4 -> [ 49@0 50@0 51@0 ]  8 -> [ 36@0 37@0 38@0 39@0 ]  16 -> [ 56@0 57@0 58@0 59@0 ]  24 -> [ 32@0 33@0 34@0 35@0 ]  28 -> [ 32@0 33@0 34@0 35@0 ]  ], output requests = [ 32 -> [ 24@0 28@0 ]  33 -> [ 24@0 28@0 ]  34 -> [ 24@0 28@0 ]  35 -> [ 24@0 28@0 ]  36 -> [ 8@0 ]  37 -> [ 8@0 ]  38 -> [ 8@0 ]  39 -> [ 8@0 ]  44 -> [ 1@0 ]  45 -> [ 1@0 ]  46 -> [ 1@0 ]  47 -> [ 1@0 ]  49 -> [ 4@0 ]  50 -> [ 4@0 ]  51 -> [ 4@0 ]  56 -> [ 16@0 ]  57 -> [ 16@0 ]  58 -> [ 16@0 ]  59 -> [ 16@0 ]  ].
7 | network_0/router_level2_4/vc_allocator | Input grants = [ 1 -> 44  4 -> 49  8 -> 36  16 -> 56  24 -> 32  ], output grants = [ 32 -> 24  36 -> 8  44 -> 1  49 -> 4  56 -> 16  ].
7 | network_0/router_level2_4 | Assigning VC 1 at output 12 to VC 0 at input 1.
7 | network_0/router_level2_4 | Beginning switch allocation for VC 0 at input 0 (front: 2).
7 | network_0/router_level2_4 |   Requesting output 12.0 (non-spec, pri: 0).
7 | network_0/router_level2_4/sw_allocator | Input requests = [ 0 -> [ 12@0 ]  ], output requests = [ 12 -> [ 0@0 ]  ].
7 | network_0/router_level2_4/sw_allocator | Input grants = [ 0 -> 12  ], output grants = [ 12 -> 0  ].
7 | network_0/router_level2_4 | Assigning output 12.0 to VC 0 at input 0.0.
7 | network_0/router_level2_4 | Completed VC allocation for VC 0 at input 1 (front: 5).
7 | network_0/router_level2_4 |   Acquiring assigned VC 1 at output 12.
7 | network_0/router_level2_4/buf_1/vc_0 | Changing state from vc_alloc to active.
7 | network_0/router_level2_4 | Completed switch allocation for VC 0 at input 0 (front: 2).
7 | network_0/router_level2_4 |   Scheduling switch connection from input 0.0 to output 12.0.
7 | network_0/router_level2_4 | Updating lookahead routing information for flit 2.
7 | network_0/router_level2_5 | Beginning switch allocation for VC 0 at input 0 (front: 1).
7 | network_0/router_level2_5 |   Requesting output 14.0 (non-spec, pri: 0).
7 | network_0/router_level2_5 | Beginning switch allocation for VC 0 at input 1 (front: 4).
7 | network_0/router_level2_5 |   Requesting output 12.0 (non-spec, pri: 0).
7 | network_0/router_level2_5/sw_allocator | Input requests = [ 0 -> [ 14@0 ]  1 -> [ 12@0 ]  3 -> [ 8@0 ]  6 -> [ 10@0 ]  7 -> [ 13@0 ]  ], output requests = [ 8 -> [ 3@0 ]  10 -> [ 6@0 ]  12 -> [ 1@0 ]  13 -> [ 7@0 ]  14 -> [ 0@0 ]  ].
7 | network_0/router_level2_5/sw_allocator | Input grants = [ 0 -> 14  1 -> 12  3 -> 8  6 -> 10  7 -> 13  ], output grants = [ 8 -> 3  10 -> 6  12 -> 1  13 -> 7  14 -> 0  ].
7 | network_0/router_level2_5 | Assigning output 14.0 to VC 0 at input 0.0.
7 | network_0/router_level2_5 | Assigning output 12.0 to VC 0 at input 1.0.
7 | network_0/router_level2_5 | Completed switch allocation for VC 0 at input 0 (front: 1).
7 | network_0/router_level2_5 |   Scheduling switch connection from input 0.0 to output 14.0.
7 | network_0/router_level2_5 | Updating lookahead routing information for flit 1.
7 | network_0/router_level2_5 | Completed switch allocation for VC 0 at input 1 (front: 4).
7 | network_0/router_level2_5 |   Scheduling switch connection from input 1.0 to output 12.0.
7 | network_0/router_level2_5 | Updating lookahead routing information for flit 4.
7 | network_0/router_level2_6 | Beginning switch allocation for VC 0 at input 1 (front: 10).
7 | network_0/router_level2_6 |   Requesting output 9.0 (non-spec, pri: 0).
7 | network_0/router_level2_6/sw_allocator | Input requests = [ 1 -> [ 9@0 ]  3 -> [ 14@0 ]  5 -> [ 12@0 ]  ], output requests = [ 9 -> [ 1@0 ]  12 -> [ 5@0 ]  14 -> [ 3@0 ]  ].
7 | network_0/router_level2_6/sw_allocator | Input grants = [ 1 -> 9  3 -> 14  5 -> 12  ], output grants = [ 9 -> 1  12 -> 5  14 -> 3  ].
7 | network_0/router_level2_6 | Assigning output 9.0 to VC 0 at input 1.0.
7 | network_0/router_level2_6 | Completed switch allocation for VC 0 at input 1 (front: 10).
7 | network_0/router_level2_6 |   Scheduling switch connection from input 1.0 to output 9.0.
7 | network_0/router_level2_6 | Updating lookahead routing information for flit 10.
7 | network_0/router_level2_7 | Beginning switch allocation for VC 0 at input 0 (front: 3).
7 | network_0/router_level2_7 |   Requesting output 10.0 (non-spec, pri: 0).
7 | network_0/router_level2_7 | Beginning switch allocation for VC 0 at input 1 (front: 9).
7 | network_0/router_level2_7 |   Requesting output 11.0 (non-spec, pri: 0).
7 | network_0/router_level2_7/sw_allocator | Input requests = [ 0 -> [ 10@0 ]  1 -> [ 11@0 ]  2 -> [ 8@0 ]  3 -> [ 14@0 ]  ], output requests = [ 8 -> [ 2@0 ]  10 -> [ 0@0 ]  11 -> [ 1@0 ]  14 -> [ 3@0 ]  ].
7 | network_0/router_level2_7/sw_allocator | Input grants = [ 0 -> 10  1 -> 11  2 -> 8  3 -> 14  ], output grants = [ 8 -> 2  10 -> 0  11 -> 1  14 -> 3  ].
7 | network_0/router_level2_7 | Assigning output 10.0 to VC 0 at input 0.0.
7 | network_0/router_level2_7 | Assigning output 11.0 to VC 0 at input 1.0.
7 | network_0/router_level2_7 | Completed switch allocation for VC 0 at input 0 (front: 3).
7 | network_0/router_level2_7 |   Scheduling switch connection from input 0.0 to output 10.0.
7 | network_0/router_level2_7 | Updating lookahead routing information for flit 3.
7 | network_0/router_level2_7 | Completed switch allocation for VC 0 at input 1 (front: 9).
7 | network_0/router_level2_7 |   Scheduling switch connection from input 1.0 to output 11.0.
7 | network_0/router_level2_7 | Updating lookahead routing information for flit 9.
7 | network_0/router_level3_1 | Beginning switch allocation for VC 0 at input 5 (front: 8).
7 | network_0/router_level3_1 |   Requesting output 13.0 (non-spec, pri: 0).
7 | network_0/router_level3_1/sw_allocator | Input requests = [ 2 -> [ 10@0 ]  5 -> [ 13@0 ]  6 -> [ 9@0 ]  7 -> [ 14@0 ]  ], output requests = [ 9 -> [ 6@0 ]  10 -> [ 2@0 ]  13 -> [ 5@0 ]  14 -> [ 7@0 ]  ].
7 | network_0/router_level3_1/sw_allocator | Input grants = [ 2 -> 10  5 -> 13  6 -> 9  7 -> 14  ], output grants = [ 9 -> 6  10 -> 2  13 -> 5  14 -> 7  ].
7 | network_0/router_level3_1 | Assigning output 13.0 to VC 0 at input 5.0.
7 | network_0/router_level3_1 | Beginning crossbar traversal for flit 7 from input 4.0 to output 13.0.
7 | network_0/router_level3_1 | Completed switch allocation for VC 0 at input 5 (front: 8).
7 | network_0/router_level3_1 |   Scheduling switch connection from input 5.0 to output 13.0.
7 | network_0/router_level3_1 | Updating lookahead routing information for flit 8.
7 | network_0/router_level3_1 | Completed crossbar traversal for flit 7 from input 4.0 to output 13.0.
7 | network_0/router_level3_1 | Buffering flit 7 at output 13.
7 | network_0/network_0_fchan_20493 | Completed channel traversal for flit 6.
7 | network_0/router_level3_1 | Sending flit 7 to channel at output 13.
8 | network_0/network_0_fchan_20493 | Beginning channel traversal for flit 7 with delay 1.
8 | network_0/router_level2_5 | Received flit 6 from channel at input 1.
8 | network_0/router_level2_4 | Beginning switch allocation for VC 0 at input 1 (front: 5).
8 | network_0/router_level2_4 |   Requesting output 12.0 (non-spec, pri: 0).
8 | network_0/router_level2_4/sw_allocator | Input requests = [ 0 -> [ 11@0 ]  1 -> [ 12@0 ]  2 -> [ 9@0 ]  4 -> [ 14@0 ]  6 -> [ 8@0 ]  ], output requests = [ 8 -> [ 6@0 ]  9 -> [ 2@0 ]  11 -> [ 0@0 ]  12 -> [ 1@0 ]  14 -> [ 4@0 ]  ].
8 | network_0/router_level2_4/sw_allocator | Input grants = [ 0 -> 11  1 -> 12  2 -> 9  4 -> 14  6 -> 8  ], output grants = [ 8 -> 6  9 -> 2  11 -> 0  12 -> 1  14 -> 4  ].
8 | network_0/router_level2_4 | Assigning output 12.0 to VC 0 at input 1.0.
8 | network_0/router_level2_4 | Beginning crossbar traversal for flit 2 from input 0.0 to output 12.0.
8 | network_0/router_level2_4 | Completed switch allocation for VC 0 at input 1 (front: 5).
8 | network_0/router_level2_4 |   Scheduling switch connection from input 1.0 to output 12.0.
8 | network_0/router_level2_4 | Updating lookahead routing information for flit 5.
8 | network_0/router_level2_4 | Completed crossbar traversal for flit 2 from input 0.0 to output 12.0.
8 | network_0/router_level2_4 | Buffering flit 2 at output 12.
8 | network_0/router_level2_5 | Adding flit 6 to VC 0 at input 1 (state: idle, empty).
8 | network_0/router_level2_5 | Using precomputed lookahead routing information for VC 0 at input 1 (front: 6).
8 | network_0/router_level2_5/buf_1/vc_0 | Changing state from idle to vc_alloc.
8 | network_0/router_level2_5 | Beginning VC allocation for VC 0 at input 1 (front: 6).
8 | network_0/router_level2_5 |   Requesting VC 0 at output 10 (in_pri: 0, out_pri: 0).
8 | network_0/router_level2_5 |   VC 1 at output 10 is in use by VC 1 at input 4 (front flit: 2843).
8 | network_0/router_level2_5 |   Requesting VC 2 at output 10 (in_pri: 0, out_pri: 0).
8 | network_0/router_level2_5 |   Requesting VC 3 at output 10 (in_pri: 0, out_pri: 0).
8 | network_0/router_level2_5/vc_allocator | Input requests = [ 4 -> [ 40@0 42@0 43@0 ]  8 -> [ 48@0 49@0 50@0 51@0 ]  16 -> [ 32@0 34@0 35@0 ]  20 -> [ 32@0 34@0 35@0 ]  21 -> [ 56@0 57@0 58@0 59@0 ]  24 -> [ 60@0 61@0 62@0 63@0 ]  28 -> [ 45@0 46@0 47@0 ]  29 -> [ 37@0 38@0 39@0 ]  ], output requests = [ 32 -> [ 16@0 20@0 ]  34 -> [ 16@0 20@0 ]  35 -> [ 16@0 20@0 ]  37 -> [ 29@0 ]  38 -> [ 29@0 ]  39 -> [ 29@0 ]  40 -> [ 4@0 ]  42 -> [ 4@0 ]  43 -> [ 4@0 ]  45 -> [ 28@0 ]  46 -> [ 28@0 ]  47 -> [ 28@0 ]  48 -> [ 8@0 ]  49 -> [ 8@0 ]  50 -> [ 8@0 ]  51 -> [ 8@0 ]  56 -> [ 21@0 ]  57 -> [ 21@0 ]  58 -> [ 21@0 ]  59 -> [ 21@0 ]  60 -> [ 24@0 ]  61 -> [ 24@0 ]  62 -> [ 24@0 ]  63 -> [ 24@0 ]  ].
8 | network_0/router_level2_5/vc_allocator | Input grants = [ 4 -> 40  8 -> 48  16 -> 32  21 -> 56  24 -> 60  28 -> 45  29 -> 37  ], output grants = [ 32 -> 16  37 -> 29  40 -> 4  45 -> 28  48 -> 8  56 -> 21  60 -> 24  ].
8 | network_0/router_level2_5 | Assigning VC 0 at output 10 to VC 0 at input 1.
8 | network_0/router_level2_5 | Beginning crossbar traversal for flit 1 from input 0.0 to output 14.0.
8 | network_0/router_level2_5 | Beginning crossbar traversal for flit 4 from input 1.0 to output 12.0.
8 | network_0/router_level2_5 | Completed VC allocation for VC 0 at input 1 (front: 6).
8 | network_0/router_level2_5 |   Acquiring assigned VC 0 at output 10.
8 | network_0/router_level2_5/buf_1/vc_0 | Changing state from vc_alloc to active.
8 | network_0/router_level2_5 | Completed crossbar traversal for flit 1 from input 0.0 to output 14.0.
8 | network_0/router_level2_5 | Buffering flit 1 at output 14.
8 | network_0/router_level2_5 | Completed crossbar traversal for flit 4 from input 1.0 to output 12.0.
8 | network_0/router_level2_5 | Buffering flit 4 at output 12.
8 | network_0/router_level2_6 | Beginning crossbar traversal for flit 10 from input 1.0 to output 9.0.
8 | network_0/router_level2_6 | Completed crossbar traversal for flit 10 from input 1.0 to output 9.0.
8 | network_0/router_level2_6 | Buffering flit 10 at output 9.
8 | network_0/router_level2_7 | Beginning crossbar traversal for flit 3 from input 0.0 to output 10.0.
8 | network_0/router_level2_7 | Beginning crossbar traversal for flit 9 from input 1.0 to output 11.0.
8 | network_0/router_level2_7 | Completed crossbar traversal for flit 3 from input 0.0 to output 10.0.
8 | network_0/router_level2_7 | Buffering flit 3 at output 10.
8 | network_0/router_level2_7 | Completed crossbar traversal for flit 9 from input 1.0 to output 11.0.
8 | network_0/router_level2_7 | Buffering flit 9 at output 11.
8 | network_0/router_level3_1 | Beginning crossbar traversal for flit 8 from input 5.0 to output 13.0.
8 | network_0/router_level3_1 | Completed crossbar traversal for flit 8 from input 5.0 to output 13.0.
8 | network_0/router_level3_1 | Buffering flit 8 at output 13.
8 | network_0/network_0_fchan_20493 | Completed channel traversal for flit 7.
8 | network_0/router_level2_4 | Sending flit 2 to channel at output 12.
8 | network_0/router_level2_5 | Sending flit 4 to channel at output 12.
8 | network_0/router_level2_5 | Sending flit 1 to channel at output 14.
8 | network_0/router_level2_6 | Sending flit 10 to channel at output 9.
8 | network_0/router_level2_7 | Sending flit 3 to channel at output 10.
8 | network_0/router_level2_7 | Sending flit 9 to channel at output 11.
8 | network_0/router_level3_1 | Sending flit 8 to channel at output 13.
9 | network_0/network_0_fchan_12324 | Beginning channel traversal for flit 2 with delay 1.
9 | network_0/network_0_fchan_12332 | Beginning channel traversal for flit 4 with delay 1.
9 | network_0/network_0_fchan_12334 | Beginning channel traversal for flit 1 with delay 1.
9 | network_0/network_0_fchan_12337 | Beginning channel traversal for flit 10 with delay 1.
9 | network_0/network_0_fchan_12346 | Beginning channel traversal for flit 3 with delay 1.
9 | network_0/network_0_fchan_12347 | Beginning channel traversal for flit 9 with delay 1.
9 | network_0/network_0_fchan_20493 | Beginning channel traversal for flit 8 with delay 1.
9 | network_0/router_level2_5 | Received flit 7 from channel at input 1.
9 | network_0/router_level2_4 | Beginning crossbar traversal for flit 5 from input 1.0 to output 12.0.
9 | network_0/router_level2_4 | Completed crossbar traversal for flit 5 from input 1.0 to output 12.0.
9 | network_0/router_level2_4 | Buffering flit 5 at output 12.
9 | network_0/router_level2_5 | Adding flit 7 to VC 1 at input 1 (state: idle, empty).
9 | network_0/router_level2_5 | Using precomputed lookahead routing information for VC 1 at input 1 (front: 7).
9 | network_0/router_level2_5/buf_1/vc_1 | Changing state from idle to vc_alloc.
9 | network_0/router_level2_5 | Beginning VC allocation for VC 1 at input 1 (front: 7).
9 | network_0/router_level2_5 |   Requesting VC 0 at output 9 (in_pri: 0, out_pri: 0).
9 | network_0/router_level2_5 |   VC 1 at output 9 is in use by VC 1 at input 7 (front flit: 41).
9 | network_0/router_level2_5 |   Requesting VC 2 at output 9 (in_pri: 0, out_pri: 0).
9 | network_0/router_level2_5 |   Requesting VC 3 at output 9 (in_pri: 0, out_pri: 0).
9 | network_0/router_level2_5/vc_allocator | Input requests = [ 0 -> [ 57@0 58@0 59@0 ]  5 -> [ 36@0 38@0 39@0 ]  9 -> [ 36@0 38@0 39@0 ]  20 -> [ 33@0 34@0 35@0 ]  ], output requests = [ 33 -> [ 20@0 ]  34 -> [ 20@0 ]  35 -> [ 20@0 ]  36 -> [ 5@0 9@0 ]  38 -> [ 5@0 9@0 ]  39 -> [ 5@0 9@0 ]  57 -> [ 0@0 ]  58 -> [ 0@0 ]  59 -> [ 0@0 ]  ].
9 | network_0/router_level2_5/vc_allocator | Input grants = [ 0 -> 57  5 -> 36  20 -> 33  ], output grants = [ 33 -> 20  36 -> 5  57 -> 0  ].
9 | network_0/router_level2_5 | Assigning VC 0 at output 9 to VC 1 at input 1.
9 | network_0/router_level2_5 | Beginning switch allocation for VC 0 at input 1 (front: 6).
9 | network_0/router_level2_5 |   Requesting output 10.0 (non-spec, pri: 0).
9 | network_0/router_level2_5/sw_allocator | Input requests = [ 1 -> [ 10@0 ]  2 -> [ 12@0 ]  4 -> [ 8@0 ]  5 -> [ 14@0 ]  6 -> [ 15@0 ]  7 -> [ 9@0 11@0 ]  ], output requests = [ 8 -> [ 4@0 ]  9 -> [ 7@0 ]  10 -> [ 1@0 ]  11 -> [ 7@0 ]  12 -> [ 2@0 ]  14 -> [ 5@0 ]  15 -> [ 6@0 ]  ].
9 | network_0/router_level2_5/sw_allocator | Input grants = [ 1 -> 10  2 -> 12  4 -> 8  5 -> 14  6 -> 15  7 -> 9  ], output grants = [ 8 -> 4  9 -> 7  10 -> 1  12 -> 2  14 -> 5  15 -> 6  ].
9 | network_0/router_level2_5 | Assigning output 10.0 to VC 0 at input 1.0.
9 | network_0/router_level2_5 | Completed VC allocation for VC 1 at input 1 (front: 7).
9 | network_0/router_level2_5 |   Acquiring assigned VC 0 at output 9.
9 | network_0/router_level2_5/buf_1/vc_1 | Changing state from vc_alloc to active.
9 | network_0/router_level2_5 | Completed switch allocation for VC 0 at input 1 (front: 6).
9 | network_0/router_level2_5 |   Scheduling switch connection from input 1.0 to output 10.0.
9 | network_0/router_level2_5 | Updating lookahead routing information for flit 6.
9 | network_0/network_0_fchan_12324 | Completed channel traversal for flit 2.
9 | network_0/network_0_fchan_12332 | Completed channel traversal for flit 4.
9 | network_0/network_0_fchan_12334 | Completed channel traversal for flit 1.
9 | network_0/network_0_fchan_12337 | Completed channel traversal for flit 10.
9 | network_0/network_0_fchan_12346 | Completed channel traversal for flit 3.
9 | network_0/network_0_fchan_12347 | Completed channel traversal for flit 9.
9 | network_0/network_0_fchan_20493 | Completed channel traversal for flit 8.
9 | network_0/router_level2_4 | Sending flit 5 to channel at output 12.
10 | network_0/network_0_fchan_12324 | Beginning channel traversal for flit 5 with delay 1.
10 | network_0/router_level1_14 | Received flit 10 from channel at input 0.
10 | network_0/router_level1_23 | Received flit 3 from channel at input 0.
10 | network_0/router_level1_31 | Received flit 9 from channel at input 0.
10 | network_0/router_level1_36 | Received flit 2 from channel at input 0.
10 | network_0/router_level1_37 | Received flit 4 from channel at input 0.
10 | network_0/router_level1_53 | Received flit 1 from channel at input 0.
10 | network_0/router_level2_5 | Received flit 8 from channel at input 1.
10 | network_0/router_level1_14 | Adding flit 10 to VC 0 at input 0 (state: idle, empty).
10 | network_0/router_level1_14 | Using precomputed lookahead routing information for VC 0 at input 0 (front: 10).
10 | network_0/router_level1_14/buf_0/vc_0 | Changing state from idle to vc_alloc.
10 | network_0/router_level1_14 | Beginning VC allocation for VC 0 at input 0 (front: 10).
10 | network_0/router_level1_14 |   Requesting VC 0 at output 15 (in_pri: 0, out_pri: 0).
10 | network_0/router_level1_14 |   Requesting VC 1 at output 15 (in_pri: 0, out_pri: 0).
10 | network_0/router_level1_14 |   Requesting VC 2 at output 15 (in_pri: 0, out_pri: 0).
10 | network_0/router_level1_14 |   Requesting VC 3 at output 15 (in_pri: 0, out_pri: 0).
10 | network_0/router_level1_14/vc_allocator | Input requests = [ 0 -> [ 60@0 61@0 62@0 63@0 ]  12 -> [ 44@0 45@0 46@0 47@0 ]  16 -> [ 60@0 61@0 62@0 63@0 ]  20 -> [ 40@0 41@0 42@0 43@0 ]  ], output requests = [ 40 -> [ 20@0 ]  41 -> [ 20@0 ]  42 -> [ 20@0 ]  43 -> [ 20@0 ]  44 -> [ 12@0 ]  45 -> [ 12@0 ]  46 -> [ 12@0 ]  47 -> [ 12@0 ]  60 -> [ 0@0 16@0 ]  61 -> [ 0@0 16@0 ]  62 -> [ 0@0 16@0 ]  63 -> [ 0@0 16@0 ]  ].
10 | network_0/router_level1_14/vc_allocator | Input grants = [ 0 -> 60  12 -> 44  20 -> 40  ], output grants = [ 40 -> 20  44 -> 12  60 -> 0  ].
10 | network_0/router_level1_14 | Assigning VC 0 at output 15 to VC 0 at input 0.
10 | network_0/router_level1_14 | Completed VC allocation for VC 0 at input 0 (front: 10).
10 | network_0/router_level1_14 |   Acquiring assigned VC 0 at output 15.
10 | network_0/router_level1_14/buf_0/vc_0 | Changing state from vc_alloc to active.
10 | network_0/router_level1_23 | Adding flit 3 to VC 0 at input 0 (state: idle, empty).
10 | network_0/router_level1_23 | Using precomputed lookahead routing information for VC 0 at input 0 (front: 3).
10 | network_0/router_level1_23/buf_0/vc_0 | Changing state from idle to vc_alloc.
10 | network_0/router_level1_23 | Beginning VC allocation for VC 0 at input 0 (front: 3).
10 | network_0/router_level1_23 |   Requesting VC 0 at output 13 (in_pri: 0, out_pri: 0).
10 | network_0/router_level1_23 |   Requesting VC 1 at output 13 (in_pri: 0, out_pri: 0).
10 | network_0/router_level1_23 |   Requesting VC 2 at output 13 (in_pri: 0, out_pri: 0).
10 | network_0/router_level1_23 |   Requesting VC 3 at output 13 (in_pri: 0, out_pri: 0).
10 | network_0/router_level1_23/vc_allocator | Input requests = [ 0 -> [ 52@0 53@0 54@0 55@0 ]  12 -> [ 60@0 61@0 62@0 63@0 ]  16 -> [ 32@0 33@0 34@0 35@0 ]  ], output requests = [ 32 -> [ 16@0 ]  33 -> [ 16@0 ]  34 -> [ 16@0 ]  35 -> [ 16@0 ]  52 -> [ 0@0 ]  53 -> [ 0@0 ]  54 -> [ 0@0 ]  55 -> [ 0@0 ]  60 -> [ 12@0 ]  61 -> [ 12@0 ]  62 -> [ 12@0 ]  63 -> [ 12@0 ]  ].
10 | network_0/router_level1_23/vc_allocator | Input grants = [ 0 -> 52  12 -> 60  16 -> 32  ], output grants = [ 32 -> 16  52 -> 0  60 -> 12  ].
10 | network_0/router_level1_23 | Assigning VC 0 at output 13 to VC 0 at input 0.
10 | network_0/router_level1_23 | Completed VC allocation for VC 0 at input 0 (front: 3).
10 | network_0/router_level1_23 |   Acquiring assigned VC 0 at output 13.
10 | network_0/router_level1_23/buf_0/vc_0 | Changing state from vc_alloc to active.
10 | network_0/router_level1_31 | Adding flit 9 to VC 0 at input 0 (state: idle, empty).
10 | network_0/router_level1_31 | Using precomputed lookahead routing information for VC 0 at input 0 (front: 9).
10 | network_0/router_level1_31/buf_0/vc_0 | Changing state from idle to vc_alloc.
10 | network_0/router_level1_31 | Beginning VC allocation for VC 0 at input 0 (front: 9).
10 | network_0/router_level1_31 |   Requesting VC 0 at output 8 (in_pri: 0, out_pri: 0).
10 | network_0/router_level1_31 |   Requesting VC 1 at output 8 (in_pri: 0, out_pri: 0).
10 | network_0/router_level1_31 |   Requesting VC 2 at output 8 (in_pri: 0, out_pri: 0).
10 | network_0/router_level1_31 |   Requesting VC 3 at output 8 (in_pri: 0, out_pri: 0).
10 | network_0/router_level1_31/vc_allocator | Input requests = [ 0 -> [ 32@0 33@0 34@0 35@0 ]  24 -> [ 40@0 41@0 42@0 43@0 ]  28 -> [ 60@0 61@0 62@0 63@0 ]  ], output requests = [ 32 -> [ 0@0 ]  33 -> [ 0@0 ]  34 -> [ 0@0 ]  35 -> [ 0@0 ]  40 -> [ 24@0 ]  41 -> [ 24@0 ]  42 -> [ 24@0 ]  43 -> [ 24@0 ]  60 -> [ 28@0 ]  61 -> [ 28@0 ]  62 -> [ 28@0 ]  63 -> [ 28@0 ]  ].
10 | network_0/router_level1_31/vc_allocator | Input grants = [ 0 -> 32  24 -> 40  28 -> 60  ], output grants = [ 32 -> 0  40 -> 24  60 -> 28  ].
10 | network_0/router_level1_31 | Assigning VC 0 at output 8 to VC 0 at input 0.
10 | network_0/router_level1_31 | Completed VC allocation for VC 0 at input 0 (front: 9).
10 | network_0/router_level1_31 |   Acquiring assigned VC 0 at output 8.
10 | network_0/router_level1_31/buf_0/vc_0 | Changing state from vc_alloc to active.
10 | network_0/router_level1_36 | Adding flit 2 to VC 0 at input 0 (state: idle, empty).
10 | network_0/router_level1_36 | Using precomputed lookahead routing information for VC 0 at input 0 (front: 2).
10 | network_0/router_level1_36/buf_0/vc_0 | Changing state from idle to vc_alloc.
10 | network_0/router_level1_36 | Beginning VC allocation for VC 0 at input 0 (front: 2).
10 | network_0/router_level1_36 |   Requesting VC 0 at output 14 (in_pri: 0, out_pri: 0).
10 | network_0/router_level1_36 |   Requesting VC 1 at output 14 (in_pri: 0, out_pri: 0).
10 | network_0/router_level1_36 |   Requesting VC 2 at output 14 (in_pri: 0, out_pri: 0).
10 | network_0/router_level1_36 |   Requesting VC 3 at output 14 (in_pri: 0, out_pri: 0).
10 | network_0/router_level1_36/vc_allocator | Input requests = [ 0 -> [ 56@0 57@0 58@0 59@0 ]  4 -> [ 48@0 49@0 50@0 51@0 ]  8 -> [ 36@0 37@0 38@0 39@0 ]  16 -> [ 48@0 49@0 50@0 51@0 ]  ], output requests = [ 36 -> [ 8@0 ]  37 -> [ 8@0 ]  38 -> [ 8@0 ]  39 -> [ 8@0 ]  48 -> [ 4@0 16@0 ]  49 -> [ 4@0 16@0 ]  50 -> [ 4@0 16@0 ]  51 -> [ 4@0 16@0 ]  56 -> [ 0@0 ]  57 -> [ 0@0 ]  58 -> [ 0@0 ]  59 -> [ 0@0 ]  ].
10 | network_0/router_level1_36/vc_allocator | Input grants = [ 0 -> 56  4 -> 48  8 -> 36  ], output grants = [ 36 -> 8  48 -> 4  56 -> 0  ].
10 | network_0/router_level1_36 | Assigning VC 0 at output 14 to VC 0 at input 0.
10 | network_0/router_level1_36 | Completed VC allocation for VC 0 at input 0 (front: 2).
10 | network_0/router_level1_36 |   Acquiring assigned VC 0 at output 14.
10 | network_0/router_level1_36/buf_0/vc_0 | Changing state from vc_alloc to active.
10 | network_0/router_level1_37 | Adding flit 4 to VC 0 at input 0 (state: idle, empty).
10 | network_0/router_level1_37 | Using precomputed lookahead routing information for VC 0 at input 0 (front: 4).
10 | network_0/router_level1_37/buf_0/vc_0 | Changing state from idle to vc_alloc.
10 | network_0/router_level1_37 | Beginning VC allocation for VC 0 at input 0 (front: 4).
10 | network_0/router_level1_37 |   Requesting VC 0 at output 15 (in_pri: 0, out_pri: 0).
10 | network_0/router_level1_37 |   Requesting VC 1 at output 15 (in_pri: 0, out_pri: 0).
10 | network_0/router_level1_37 |   Requesting VC 2 at output 15 (in_pri: 0, out_pri: 0).
10 | network_0/router_level1_37 |   Requesting VC 3 at output 15 (in_pri: 0, out_pri: 0).
10 | network_0/router_level1_37/vc_allocator | Input requests = [ 0 -> [ 60@0 61@0 62@0 63@0 ]  4 -> [ 40@0 41@0 42@0 43@0 ]  8 -> [ 52@0 53@0 54@0 55@0 ]  16 -> [ 48@0 49@0 50@0 51@0 ]  ], output requests = [ 40 -> [ 4@0 ]  41 -> [ 4@0 ]  42 -> [ 4@0 ]  43 -> [ 4@0 ]  48 -> [ 16@0 ]  49 -> [ 16@0 ]  50 -> [ 16@0 ]  51 -> [ 16@0 ]  52 -> [ 8@0 ]  53 -> [ 8@0 ]  54 -> [ 8@0 ]  55 -> [ 8@0 ]  60 -> [ 0@0 ]  61 -> [ 0@0 ]  62 -> [ 0@0 ]  63 -> [ 0@0 ]  ].
10 | network_0/router_level1_37/vc_allocator | Input grants = [ 0 -> 60  4 -> 40  8 -> 52  16 -> 48  ], output grants = [ 40 -> 4  48 -> 16  52 -> 8  60 -> 0  ].
10 | network_0/router_level1_37 | Assigning VC 0 at output 15 to VC 0 at input 0.
10 | network_0/router_level1_37 | Completed VC allocation for VC 0 at input 0 (front: 4).
10 | network_0/router_level1_37 |   Acquiring assigned VC 0 at output 15.
10 | network_0/router_level1_37/buf_0/vc_0 | Changing state from vc_alloc to active.
10 | network_0/router_level1_53 | Adding flit 1 to VC 0 at input 0 (state: idle, empty).
10 | network_0/router_level1_53 | Using precomputed lookahead routing information for VC 0 at input 0 (front: 1).
10 | network_0/router_level1_53/buf_0/vc_0 | Changing state from idle to vc_alloc.
10 | network_0/router_level1_53 | Beginning VC allocation for VC 0 at input 0 (front: 1).
10 | network_0/router_level1_53 |   Requesting VC 0 at output 12 (in_pri: 0, out_pri: 0).
10 | network_0/router_level1_53 |   Requesting VC 1 at output 12 (in_pri: 0, out_pri: 0).
10 | network_0/router_level1_53 |   Requesting VC 2 at output 12 (in_pri: 0, out_pri: 0).
10 | network_0/router_level1_53 |   Requesting VC 3 at output 12 (in_pri: 0, out_pri: 0).
10 | network_0/router_level1_53/vc_allocator | Input requests = [ 0 -> [ 48@0 49@0 50@0 51@0 ]  4 -> [ 52@0 53@0 54@0 55@0 ]  12 -> [ 52@0 53@0 54@0 55@0 ]  20 -> [ 44@0 45@0 46@0 47@0 ]  ], output requests = [ 44 -> [ 20@0 ]  45 -> [ 20@0 ]  46 -> [ 20@0 ]  47 -> [ 20@0 ]  48 -> [ 0@0 ]  49 -> [ 0@0 ]  50 -> [ 0@0 ]  51 -> [ 0@0 ]  52 -> [ 4@0 12@0 ]  53 -> [ 4@0 12@0 ]  54 -> [ 4@0 12@0 ]  55 -> [ 4@0 12@0 ]  ].
10 | network_0/router_level1_53/vc_allocator | Input grants = [ 0 -> 48  4 -> 52  20 -> 44  ], output grants = [ 44 -> 20  48 -> 0  52 -> 4  ].
10 | network_0/router_level1_53 | Assigning VC 0 at output 12 to VC 0 at input 0.
10 | network_0/router_level1_53 | Completed VC allocation for VC 0 at input 0 (front: 1).
10 | network_0/router_level1_53 |   Acquiring assigned VC 0 at output 12.
10 | network_0/router_level1_53/buf_0/vc_0 | Changing state from vc_alloc to active.
10 | network_0/router_level2_5 | Adding flit 8 to VC 0 at input 1 (state: idle, empty).
10 | network_0/router_level2_5 | Using precomputed lookahead routing information for VC 0 at input 1 (front: 8).
10 | network_0/router_level2_5/buf_1/vc_0 | Changing state from idle to vc_alloc.
10 | network_0/router_level2_5 | Beginning VC allocation for VC 0 at input 1 (front: 8).
10 | network_0/router_level2_5 |   VC 0 at output 9 is in use by VC 1 at input 1 (front flit: 7).
10 | network_0/router_level2_5 |   Requesting VC 1 at output 9 (in_pri: 0, out_pri: 0).
10 | network_0/router_level2_5 |   Requesting VC 2 at output 9 (in_pri: 0, out_pri: 0).
10 | network_0/router_level2_5 |   Requesting VC 3 at output 9 (in_pri: 0, out_pri: 0).
10 | network_0/router_level2_5/vc_allocator | Input requests = [ 1 -> [ 44@0 46@0 47@0 ]  4 -> [ 37@0 38@0 39@0 ]  9 -> [ 37@0 38@0 39@0 ]  16 -> [ 60@0 61@0 62@0 63@0 ]  17 -> [ 56@0 58@0 59@0 ]  21 -> [ 40@0 41@0 42@0 43@0 ]  25 -> [ 32@0 34@0 35@0 ]  29 -> [ 60@0 61@0 62@0 63@0 ]  ], output requests = [ 32 -> [ 25@0 ]  34 -> [ 25@0 ]  35 -> [ 25@0 ]  37 -> [ 4@0 9@0 ]  38 -> [ 4@0 9@0 ]  39 -> [ 4@0 9@0 ]  40 -> [ 21@0 ]  41 -> [ 21@0 ]  42 -> [ 21@0 ]  43 -> [ 21@0 ]  44 -> [ 1@0 ]  46 -> [ 1@0 ]  47 -> [ 1@0 ]  56 -> [ 17@0 ]  58 -> [ 17@0 ]  59 -> [ 17@0 ]  60 -> [ 16@0 29@0 ]  61 -> [ 16@0 29@0 ]  62 -> [ 16@0 29@0 ]  63 -> [ 16@0 29@0 ]  ].
10 | network_0/router_level2_5/vc_allocator | Input grants = [ 1 -> 44  4 -> 37  17 -> 56  21 -> 40  25 -> 32  29 -> 60  ], output grants = [ 32 -> 25  37 -> 4  40 -> 21  44 -> 1  56 -> 17  60 -> 29  ].
10 | network_0/router_level2_5 | Assigning VC 1 at output 9 to VC 0 at input 1.
10 | network_0/router_level2_5 | Beginning switch allocation for VC 1 at input 1 (front: 7).
10 | network_0/router_level2_5 |   Requesting output 9.0 (non-spec, pri: 0).
10 | network_0/router_level2_5/sw_allocator | Input requests = [ 0 -> [ 14@0 ]  1 -> [ 9@0 ]  5 -> [ 8@0 ]  7 -> [ 11@0 ]  ], output requests = [ 8 -> [ 5@0 ]  9 -> [ 1@0 ]  11 -> [ 7@0 ]  14 -> [ 0@0 ]  ].
10 | network_0/router_level2_5/sw_allocator | Input grants = [ 0 -> 14  1 -> 9  5 -> 8  7 -> 11  ], output grants = [ 8 -> 5  9 -> 1  11 -> 7  14 -> 0  ].
10 | network_0/router_level2_5 | Assigning output 9.0 to VC 1 at input 1.0.
10 | network_0/router_level2_5 | Beginning crossbar traversal for flit 6 from input 1.0 to output 10.0.
10 | network_0/router_level2_5 | Completed VC allocation for VC 0 at input 1 (front: 8).
10 | network_0/router_level2_5 |   Acquiring assigned VC 1 at output 9.
10 | network_0/router_level2_5/buf_1/vc_0 | Changing state from vc_alloc to active.
10 | network_0/router_level2_5 | Completed switch allocation for VC 1 at input 1 (front: 7).
10 | network_0/router_level2_5 |   Scheduling switch connection from input 1.0 to output 9.0.
10 | network_0/router_level2_5 | Updating lookahead routing information for flit 7.
10 | network_0/router_level2_5 | Completed crossbar traversal for flit 6 from input 1.0 to output 10.0.
10 | network_0/router_level2_5 | Buffering flit 6 at output 10.
10 | network_0/network_0_fchan_12324 | Completed channel traversal for flit 5.
10 | network_0/router_level2_5 | Sending flit 6 to channel at output 10.
11 | network_0/network_0_fchan_12330 | Beginning channel traversal for flit 6 with delay 1.
11 | network_0/router_level1_36 | Received flit 5 from channel at input 0.
11 | network_0/router_level1_14 | Beginning switch allocation for VC 0 at input 0 (front: 10).
11 | network_0/router_level1_14 |   Requesting output 15.0 (non-spec, pri: 0).
11 | network_0/router_level1_14/sw_allocator | Input requests = [ 0 -> [ 15@0 ]  3 -> [ 11@0 ]  5 -> [ 10@0 ]  ], output requests = [ 10 -> [ 5@0 ]  11 -> [ 3@0 ]  15 -> [ 0@0 ]  ].
[...]
30 | node4091 | Ejecting flit 2 (packet 2) from VC 0.
30 | node4092 | Ejecting flit 1 (packet 1) from VC 0.
30 | network_0/network_0_fchan_egress4086 | Beginning channel traversal for flit 5 with delay 1.
30 | network_0/router_level3_510 | Received flit 8 from channel at input 13.
30 | node4080 | Injecting credit for VC 0 into subnet 0.
30 | node4080 | Retiring flit 10 (packet 10, src = 15, dest = 4080, hops = 7, flat = 30).
30 | node4080 | Retiring packet 10 (plat = 30, nlat = 30, frag = 0, src = 15, dest = 4080).
30 | node4081 | Injecting credit for VC 0 into subnet 0.
30 | node4081 | Retiring flit 9 (packet 9, src = 14, dest = 4081, hops = 7, flat = 30).
30 | node4081 | Retiring packet 9 (plat = 30, nlat = 30, frag = 0, src = 14, dest = 4081).
30 | node4087 | Injecting credit for VC 0 into subnet 0.
30 | node4087 | Retiring flit 4 (packet 4, src = 8, dest = 4087, hops = 7, flat = 30).
30 | node4087 | Retiring packet 4 (plat = 30, nlat = 30, frag = 0, src = 8, dest = 4087).
30 | node4090 | Injecting credit for VC 0 into subnet 0.
30 | node4090 | Retiring flit 3 (packet 3, src = 5, dest = 4090, hops = 7, flat = 30).
30 | node4090 | Retiring packet 3 (plat = 30, nlat = 30, frag = 0, src = 5, dest = 4090).
30 | node4091 | Injecting credit for VC 0 into subnet 0.
30 | node4091 | Retiring flit 2 (packet 2, src = 4, dest = 4091, hops = 7, flat = 30).
30 | node4091 | Retiring packet 2 (plat = 30, nlat = 30, frag = 0, src = 4, dest = 4091).
30 | node4092 | Injecting credit for VC 0 into subnet 0.
30 | node4092 | Retiring flit 1 (packet 1, src = 3, dest = 4092, hops = 7, flat = 30).
30 | node4092 | Retiring packet 1 (plat = 30, nlat = 30, frag = 0, src = 3, dest = 4092).
30 | network_0/router_level3_510 | Adding flit 8 to VC 0 at input 13 (state: idle, empty).
30 | network_0/router_level3_510 | Using precomputed lookahead routing information for VC 0 at input 13 (front: 8).
30 | network_0/router_level3_510/buf_13/vc_0 | Changing state from idle to vc_alloc.
30 | network_0/router_level3_510 | Beginning VC allocation for VC 0 at input 13 (front: 8).
30 | network_0/router_level3_510 |   Requesting VC 0 at output 2 (in_pri: 0, out_pri: 0).
30 | network_0/router_level3_510 |   Requesting VC 1 at output 2 (in_pri: 0, out_pri: 0).
30 | network_0/router_level3_510 |   Requesting VC 2 at output 2 (in_pri: 0, out_pri: 0).
30 | network_0/router_level3_510 |   Requesting VC 3 at output 2 (in_pri: 0, out_pri: 0).
30 | network_0/router_level3_510/vc_allocator | Input requests = [ 0 -> [ 36@0 37@0 38@0 ]  5 -> [ 57@0 59@0 ]  16 -> [ 45@0 ]  23 -> [ 45@0 ]  24 -> [ 57@0 59@0 ]  25 -> [ 57@0 59@0 ]  26 -> [ 45@0 ]  30 -> [ 34@0 35@0 ]  31 -> [ 36@0 37@0 38@0 ]  41 -> [ 25@0 26@0 27@0 ]  52 -> [ 8@0 9@0 10@0 11@0 ]  ], output requests = [ 8 -> [ 52@0 ]  9 -> [ 52@0 ]  10 -> [ 52@0 ]  11 -> [ 52@0 ]  25 -> [ 41@0 ]  26 -> [ 41@0 ]  27 -> [ 41@0 ]  34 -> [ 30@0 ]  35 -> [ 30@0 ]  36 -> [ 0@0 31@0 ]  37 -> [ 0@0 31@0 ]  38 -> [ 0@0 31@0 ]  45 -> [ 16@0 23@0 26@0 ]  57 -> [ 5@0 24@0 25@0 ]  59 -> [ 5@0 24@0 25@0 ]  ].
30 | network_0/router_level3_510/vc_allocator | Input grants = [ 16 -> 45  24 -> 57  30 -> 34  31 -> 36  41 -> 25  52 -> 8  ], output grants = [ 8 -> 52  25 -> 41  34 -> 30  36 -> 31  45 -> 16  57 -> 24  ].
30 | network_0/router_level3_510 | Assigning VC 0 at output 2 to VC 0 at input 13.
30 | network_0/router_level3_510 | Beginning crossbar traversal for flit 6 from input 13.0 to output 4.0.
30 | network_0/router_level3_510 | Completed VC allocation for VC 0 at input 13 (front: 8).
30 | network_0/router_level3_510 |   Acquiring assigned VC 0 at output 2.
30 | network_0/router_level3_510/buf_13/vc_0 | Changing state from vc_alloc to active.
30 | network_0/router_level3_510 | Using precomputed lookahead routing information for VC 1 at input 13 (front: 7).
30 | network_0/router_level3_510/buf_13/vc_1 | Changing state from active to vc_alloc.
30 | network_0/router_level3_510 | Completed crossbar traversal for flit 6 from input 13.0 to output 4.0.
30 | network_0/router_level3_510 | Buffering flit 6 at output 4.
30 | network_0/network_0_fchan_egress4086 | Completed channel traversal for flit 5.
30 | network_0/router_level3_510 | Sending flit 6 to channel at output 4.
31 | node4086 | Ejecting flit 5 (packet 5) from VC 0.
31 | network_0/network_0_fchan_egress4084 | Beginning channel traversal for flit 6 with delay 1.
31 | node4086 | Injecting credit for VC 0 into subnet 0.
31 | node4086 | Retiring flit 5 (packet 5, src = 9, dest = 4086, hops = 7, flat = 31).
31 | node4086 | Retiring packet 5 (plat = 31, nlat = 31, frag = 0, src = 9, dest = 4086).
31 | network_0/router_level3_510 | Beginning VC allocation for VC 1 at input 13 (front: 7).
31 | network_0/router_level3_510 |   Requesting VC 0 at output 3 (in_pri: 0, out_pri: 0).
31 | network_0/router_level3_510 |   Requesting VC 1 at output 3 (in_pri: 0, out_pri: 0).
31 | network_0/router_level3_510 |   Requesting VC 2 at output 3 (in_pri: 0, out_pri: 0).
31 | network_0/router_level3_510 |   Requesting VC 3 at output 3 (in_pri: 0, out_pri: 0).
31 | network_0/router_level3_510/vc_allocator | Input requests = [ 0 -> [ 37@0 38@0 ]  5 -> [ 56@0 59@0 ]  8 -> [ 40@0 41@0 42@0 43@0 ]  13 -> [ 50@0 ]  15 -> [ 60@0 61@0 62@0 63@0 ]  17 -> [ 52@0 53@0 54@0 55@0 ]  21 -> [ 60@0 61@0 62@0 63@0 ]  23 -> [ 46@0 ]  25 -> [ 56@0 59@0 ]  26 -> [ 46@0 ]  28 -> [ 37@0 38@0 ]  32 -> [ 4@0 5@0 6@0 7@0 ]  36 -> [ 4@0 5@0 6@0 7@0 ]  42 -> [ 20@0 21@0 22@0 23@0 ]  53 -> [ 12@0 13@0 14@0 15@0 ]  ], output requests = [ 4 -> [ 32@0 36@0 ]  5 -> [ 32@0 36@0 ]  6 -> [ 32@0 36@0 ]  7 -> [ 32@0 36@0 ]  12 -> [ 53@0 ]  13 -> [ 53@0 ]  14 -> [ 53@0 ]  15 -> [ 53@0 ]  20 -> [ 42@0 ]  21 -> [ 42@0 ]  22 -> [ 42@0 ]  23 -> [ 42@0 ]  37 -> [ 0@0 28@0 ]  38 -> [ 0@0 28@0 ]  40 -> [ 8@0 ]  41 -> [ 8@0 ]  42 -> [ 8@0 ]  43 -> [ 8@0 ]  46 -> [ 23@0 26@0 ]  50 -> [ 13@0 ]  52 -> [ 17@0 ]  53 -> [ 17@0 ]  54 -> [ 17@0 ]  55 -> [ 17@0 ]  56 -> [ 5@0 25@0 ]  59 -> [ 5@0 25@0 ]  60 -> [ 15@0 21@0 ]  61 -> [ 15@0 21@0 ]  62 -> [ 15@0 21@0 ]  63 -> [ 15@0 21@0 ]  ].
31 | network_0/router_level3_510/vc_allocator | Input grants = [ 5 -> 59  8 -> 40  13 -> 50  15 -> 60  17 -> 52  23 -> 46  25 -> 56  28 -> 37  32 -> 4  42 -> 20  53 -> 12  ], output grants = [ 4 -> 32  12 -> 53  20 -> 42  37 -> 28  40 -> 8  46 -> 23  50 -> 13  52 -> 17  56 -> 25  59 -> 5  60 -> 15  ].
31 | network_0/router_level3_510 | Assigning VC 0 at output 3 to VC 1 at input 13.
31 | network_0/router_level3_510 | Beginning switch allocation for VC 0 at input 13 (front: 8).
31 | network_0/router_level3_510 |   Requesting output 2.0 (non-spec, pri: 0).
31 | network_0/router_level3_510/sw_allocator | Input requests = [ 0 -> [ 8@0 9@0 14@0 ]  2 -> [ 11@0 12@0 ]  3 -> [ 11@0 12@0 ]  4 -> [ 11@0 ]  5 -> [ 12@0 ]  6 -> [ 14@0 ]  7 -> [ 8@0 9@0 ]  10 -> [ 6@0 ]  13 -> [ 2@0 ]  ], output requests = [ 2 -> [ 13@0 ]  6 -> [ 10@0 ]  8 -> [ 0@0 7@0 ]  9 -> [ 0@0 7@0 ]  11 -> [ 2@0 3@0 4@0 ]  12 -> [ 2@0 3@0 5@0 ]  14 -> [ 0@0 6@0 ]  ].
31 | network_0/router_level3_510/sw_allocator | Input grants = [ 2 -> 11  5 -> 12  6 -> 14  7 -> 8  10 -> 6  13 -> 2  ], output grants = [ 2 -> 13  6 -> 10  8 -> 7  11 -> 2  12 -> 5  14 -> 6  ].
31 | network_0/router_level3_510 | Assigning output 2.0 to VC 0 at input 13.0.
31 | network_0/router_level3_510 | Completed VC allocation for VC 1 at input 13 (front: 7).
31 | network_0/router_level3_510 |   Acquiring assigned VC 0 at output 3.
31 | network_0/router_level3_510/buf_13/vc_1 | Changing state from vc_alloc to active.
31 | network_0/router_level3_510 | Completed switch allocation for VC 0 at input 13 (front: 8).
31 | network_0/router_level3_510 |   Scheduling switch connection from input 13.0 to output 2.0.
31 | network_0/network_0_fchan_egress4084 | Completed channel traversal for flit 6.
32 | node4084 | Ejecting flit 6 (packet 6) from VC 0.
32 | node4084 | Injecting credit for VC 0 into subnet 0.
32 | node4084 | Retiring flit 6 (packet 6, src = 11, dest = 4084, hops = 7, flat = 32).
32 | node4084 | Retiring packet 6 (plat = 32, nlat = 32, frag = 0, src = 11, dest = 4084).
32 | network_0/router_level3_510 | Beginning switch allocation for VC 1 at input 13 (front: 7).
32 | network_0/router_level3_510 |   Requesting output 3.0 (non-spec, pri: 0).
32 | network_0/router_level3_510/sw_allocator | Input requests = [ 0 -> [ 8@0 9@0 14@0 ]  1 -> [ 14@0 ]  2 -> [ 10@0 12@0 ]  3 -> [ 11@0 12@0 15@0 ]  4 -> [ 11@0 13@0 ]  5 -> [ 11@0 ]  6 -> [ 14@0 ]  7 -> [ 9@0 ]  8 -> [ 1@0 ]  10 -> [ 5@0 ]  13 -> [ 3@0 ]  ], output requests = [ 1 -> [ 8@0 ]  3 -> [ 13@0 ]  5 -> [ 10@0 ]  8 -> [ 0@0 ]  9 -> [ 0@0 7@0 ]  10 -> [ 2@0 ]  11 -> [ 3@0 4@0 5@0 ]  12 -> [ 2@0 3@0 ]  13 -> [ 4@0 ]  14 -> [ 0@0 1@0 6@0 ]  15 -> [ 3@0 ]  ].
32 | network_0/router_level3_510/sw_allocator | Input grants = [ 0 -> 14  2 -> 12  3 -> 11  7 -> 9  8 -> 1  10 -> 5  13 -> 3  ], output grants = [ 1 -> 8  3 -> 13  5 -> 10  9 -> 7  11 -> 3  12 -> 2  14 -> 0  ].
32 | network_0/router_level3_510 | Assigning output 3.0 to VC 1 at input 13.0.
32 | network_0/router_level3_510 | Beginning crossbar traversal for flit 8 from input 13.0 to output 2.0.
32 | network_0/router_level3_510 | Completed switch allocation for VC 1 at input 13 (front: 7).
32 | network_0/router_level3_510 |   Scheduling switch connection from input 13.0 to output 3.0.
32 | network_0/router_level3_510 | Completed crossbar traversal for flit 8 from input 13.0 to output 2.0.
32 | network_0/router_level3_510 | Buffering flit 8 at output 2.
32 | network_0/router_level3_510 | Sending flit 8 to channel at output 2.
33 | network_0/network_0_fchan_egress4082 | Beginning channel traversal for flit 8 with delay 1.
33 | network_0/router_level3_510 | Beginning crossbar traversal for flit 7 from input 13.0 to output 3.0.
33 | network_0/router_level3_510 | Completed crossbar traversal for flit 7 from input 13.0 to output 3.0.
33 | network_0/router_level3_510 | Buffering flit 7 at output 3.
33 | network_0/network_0_fchan_egress4082 | Completed channel traversal for flit 8.
33 | network_0/router_level3_510 | Sending flit 7 to channel at output 3.
34 | node4082 | Ejecting flit 8 (packet 8) from VC 0.
34 | network_0/network_0_fchan_egress4083 | Beginning channel traversal for flit 7 with delay 1.
34 | node4082 | Injecting credit for VC 0 into subnet 0.
34 | node4082 | Retiring flit 8 (packet 8, src = 13, dest = 4082, hops = 7, flat = 34).
34 | node4082 | Retiring packet 8 (plat = 34, nlat = 34, frag = 0, src = 13, dest = 4082).
34 | network_0/network_0_fchan_egress4083 | Completed channel traversal for flit 7.
35 | node4083 | Ejecting flit 7 (packet 7) from VC 0.
35 | node4083 | Injecting credit for VC 0 into subnet 0.
35 | node4083 | Retiring flit 7 (packet 7, src = 12, dest = 4083, hops = 7, flat = 35).
35 | node4083 | Retiring packet 7 (plat = 35, nlat = 35, frag = 0, src = 12, dest = 4083).
Class 0:
Packet latency average = 105.286
	minimum = 30
	maximum = 392
Network latency average = 105.284
	minimum = 30
	maximum = 392
Slowest packet = 1645539
Flit latency average = 105.284
	minimum = 30
	maximum = 392
Slowest flit = 1645539
Fragmentation average = 0
	minimum = 0
	maximum = 0
Injected packet rate average = 0.699748
	minimum = 0.655 (at node 3965)
	maximum = 0.742 (at node 570)
Accepted packet rate average = 0.592743
	minimum = 0.549 (at node 1597)
	maximum = 0.631 (at node 3602)
Injected flit rate average = 0.699748
	minimum = 0.655 (at node 3965)
	maximum = 0.742 (at node 570)
Accepted flit rate average= 0.592743
	minimum = 0.549 (at node 1597)
	maximum = 0.631 (at node 3602)
Injected packet length average = 1
Accepted packet length average = 1
Total in-flight flits = 438308 (0 measured)
latency change    = 1
throughput change = 1
Class 0:
Packet latency average = 149.836
	minimum = 30
	maximum = 553
Network latency average = 148.909
	minimum = 30
	maximum = 537
Slowest packet = 3349093
Flit latency average = 148.909
	minimum = 30
	maximum = 537
Slowest flit = 3349093
Fragmentation average = 0
	minimum = 0
	maximum = 0
Injected packet rate average = 0.695223
	minimum = 0.6475 (at node 2287)
	maximum = 0.726 (at node 3596)
Accepted packet rate average = 0.620271
	minimum = 0.5805 (at node 1944)
	maximum = 0.654 (at node 2229)
Injected flit rate average = 0.695223
	minimum = 0.6475 (at node 2287)
	maximum = 0.726 (at node 3596)
Accepted flit rate average= 0.620271
	minimum = 0.5805 (at node 1944)
	maximum = 0.654 (at node 2229)
Injected packet length average = 1
Accepted packet length average = 1
Total in-flight flits = 614677 (0 measured)
latency change    = 0.297327
throughput change = 0.0443796
Class 0:
Packet latency average = 260.46
	minimum = 39
	maximum = 642
Network latency average = 237.151
	minimum = 39
	maximum = 576
Slowest packet = 4208902
Flit latency average = 237.151
	minimum = 39
	maximum = 576
Slowest flit = 5775184
Fragmentation average = 0
	minimum = 0
	maximum = 0
Injected packet rate average = 0.668148
	minimum = 0.536 (at node 2113)
	maximum = 0.723 (at node 1805)
Accepted packet rate average = 0.653168
	minimum = 0.55 (at node 1982)
	maximum = 0.701 (at node 1805)
Injected flit rate average = 0.668148
	minimum = 0.536 (at node 2113)
	maximum = 0.723 (at node 1805)
Accepted flit rate average= 0.653168
	minimum = 0.55 (at node 1982)
	maximum = 0.701 (at node 1805)
Injected packet length average = 1
Accepted packet length average = 1
Total in-flight flits = 676620 (0 measured)
latency change    = 0.424723
throughput change = 0.0503663
Warmed up ...Time used is 3000 cycles
Class 0:
Packet latency average = 328.807
	minimum = 43
	maximum = 733
Network latency average = 250.04
	minimum = 43
	maximum = 580
Slowest packet = 8437296
Flit latency average = 253.614
	minimum = 43
	maximum = 595
Slowest flit = 7084976
Fragmentation average = 0
	minimum = 0
	maximum = 0
Injected packet rate average = 0.660898
	minimum = 0.58 (at node 1909)
	maximum = 0.718 (at node 708)
Accepted packet rate average = 0.655833
	minimum = 0.573 (at node 1849)
	maximum = 0.707 (at node 91)
Injected flit rate average = 0.660898
	minimum = 0.58 (at node 1909)
	maximum = 0.718 (at node 708)
Accepted flit rate average= 0.655833
	minimum = 0.573 (at node 1849)
	maximum = 0.707 (at node 91)
Injected packet length average = 1
Accepted packet length average = 1
Total in-flight flits = 697497 (697497 measured)
latency change    = 0.207866
throughput change = 0.00406359
Class 0:
Packet latency average = 362.111
	minimum = 43
	maximum = 881
Network latency average = 255.292
	minimum = 43
	maximum = 625
Slowest packet = 8437296
Flit latency average = 256.416
	minimum = 43
	maximum = 625
Slowest flit = 11416567
Fragmentation average = 0
	minimum = 0
	maximum = 0
Injected packet rate average = 0.660502
	minimum = 0.602 (at node 89)
	maximum = 0.7035 (at node 1626)
Accepted packet rate average = 0.656837
	minimum = 0.5885 (at node 1849)
	maximum = 0.6975 (at node 3237)
Injected flit rate average = 0.660502
	minimum = 0.602 (at node 89)
	maximum = 0.7035 (at node 1626)
Accepted flit rate average= 0.656837
	minimum = 0.5885 (at node 1849)
	maximum = 0.6975 (at node 3237)
Injected packet length average = 1
Accepted packet length average = 1
Total in-flight flits = 706773 (706773 measured)
latency change    = 0.0919711
throughput change = 0.00152839
Class 0:
Packet latency average = 392.861
	minimum = 43
	maximum = 911
Network latency average = 257.747
	minimum = 43
	maximum = 625
Slowest packet = 8437296
Flit latency average = 258.29
	minimum = 43
	maximum = 625
Slowest flit = 11416567
Fragmentation average = 0
	minimum = 0
	maximum = 0
Injected packet rate average = 0.660332
	minimum = 0.612333 (at node 3494)
	maximum = 0.693333 (at node 2078)
Accepted packet rate average = 0.657556
	minimum = 0.614333 (at node 1849)
	maximum = 0.687333 (at node 1798)
Injected flit rate average = 0.660332
	minimum = 0.612333 (at node 3494)
	maximum = 0.693333 (at node 2078)
Accepted flit rate average= 0.657556
	minimum = 0.614333 (at node 1849)
	maximum = 0.687333 (at node 1798)
Injected packet length average = 1
Accepted packet length average = 1
Total in-flight flits = 710869 (710869 measured)
latency change    = 0.0782716
throughput change = 0.0010922
Class 0:
Packet latency average = 422.9
	minimum = 43
	maximum = 1040
Network latency average = 259.164
	minimum = 43
	maximum = 625
Slowest packet = 8437296
Flit latency average = 259.482
	minimum = 43
	maximum = 625
Slowest flit = 11416567
Fragmentation average = 0
	minimum = 0
	maximum = 0
Injected packet rate average = 0.660118
	minimum = 0.617 (at node 2103)
	maximum = 0.69275 (at node 826)
Accepted packet rate average = 0.657847
	minimum = 0.61925 (at node 1979)
	maximum = 0.6875 (at node 3269)
Injected flit rate average = 0.660118
	minimum = 0.617 (at node 2103)
	maximum = 0.69275 (at node 826)
Accepted flit rate average= 0.657847
	minimum = 0.61925 (at node 1979)
	maximum = 0.6875 (at node 3269)
Injected packet length average = 1
Accepted packet length average = 1
Total in-flight flits = 713986 (713986 measured)
latency change    = 0.0710306
throughput change = 0.000443334
Class 0:
Packet latency average = 452.634
	minimum = 43
	maximum = 1087
Network latency average = 260.232
	minimum = 43
	maximum = 625
Slowest packet = 8437296
Flit latency average = 260.433
	minimum = 43
	maximum = 625
Slowest flit = 11416567
Fragmentation average = 0
	minimum = 0
	maximum = 0
Injected packet rate average = 0.66008
	minimum = 0.6196 (at node 2548)
	maximum = 0.6874 (at node 1585)
Accepted packet rate average = 0.658098
	minimum = 0.623 (at node 1547)
	maximum = 0.684 (at node 1015)
Injected flit rate average = 0.66008
	minimum = 0.6196 (at node 2548)
	maximum = 0.6874 (at node 1585)
Accepted flit rate average= 0.658098
	minimum = 0.623 (at node 1547)
	maximum = 0.684 (at node 1015)
Injected packet length average = 1
Accepted packet length average = 1
Total in-flight flits = 717324 (717324 measured)
latency change    = 0.0656902
throughput change = 0.000381348
Class 0:
Packet latency average = 482.255
	minimum = 43
	maximum = 1180
Network latency average = 261.166
	minimum = 43
	maximum = 625
Slowest packet = 8437296
Flit latency average = 261.294
	minimum = 43
	maximum = 625
Slowest flit = 11416567
Fragmentation average = 0
	minimum = 0
	maximum = 0
Injected packet rate average = 0.660024
	minimum = 0.625 (at node 2548)
	maximum = 0.688333 (at node 670)
Accepted packet rate average = 0.658263
	minimum = 0.627167 (at node 1547)
	maximum = 0.681667 (at node 2510)
Injected flit rate average = 0.660024
	minimum = 0.625 (at node 2548)
	maximum = 0.688333 (at node 670)
Accepted flit rate average= 0.658263
	minimum = 0.627167 (at node 1547)
	maximum = 0.681667 (at node 2510)
Injected packet length average = 1
Accepted packet length average = 1
Total in-flight flits = 720008 (720008 measured)
latency change    = 0.0614237
throughput change = 0.000251077
Class 0:
Packet latency average = 511.683
	minimum = 43
	maximum = 1288
Network latency average = 261.861
	minimum = 43
	maximum = 635
Slowest packet = 8437296
Flit latency average = 261.946
	minimum = 43
	maximum = 635
Slowest flit = 24460557
Fragmentation average = 0
	minimum = 0
	maximum = 0
Injected packet rate average = 0.659933
	minimum = 0.628 (at node 2548)
	maximum = 0.683429 (at node 2015)
Accepted packet rate average = 0.658463
	minimum = 0.627 (at node 1547)
	maximum = 0.681714 (at node 2080)
Injected flit rate average = 0.659933
	minimum = 0.628 (at node 2548)
	maximum = 0.683429 (at node 2015)
Accepted flit rate average= 0.658463
	minimum = 0.627 (at node 1547)
	maximum = 0.681714 (at node 2080)
Injected packet length average = 1
Accepted packet length average = 1
Total in-flight flits = 718961 (718961 measured)
latency change    = 0.0575108
throughput change = 0.000302437
Average latency for class 0 exceeded 500 cycles. Aborting simulation.
Too many sample periods needed to converge
Simulation unstable, ending ...
Total run time 2729.22
