BEGIN Configuration File: examples/fattree_config_0.45_4_bitcomp
// $Id: dragonflyconfig 3555 2011-05-16 23:37:55Z dub $

// Copyright (c) 2007-2015, Trustees of The Leland Stanford Junior University
// All rights reserved.
//
// Redistribution and use in source and binary forms, with or without
// modification, are permitted provided that the following conditions are met:
//
// Redistributions of source code must retain the above copyright notice, this
// list of conditions and the following disclaimer.
// Redistributions in binary form must reproduce the above copyright notice,
// this list of conditions and the following disclaimer in the documentation
// and/or other materials provided with the distribution.
//
// THIS SOFTWARE IS PROVIDED BY THE COPYRIGHT HOLDERS AND CONTRIBUTORS "AS IS"
// AND ANY EXPRESS OR IMPLIED WARRANTIES, INCLUDING, BUT NOT LIMITED TO, THE
// IMPLIED WARRANTIES OF MERCHANTABILITY AND FITNESS FOR A PARTICULAR PURPOSE
// ARE DISCLAIMED. IN NO EVENT SHALL THE COPYRIGHT OWNER OR CONTRIBUTORS BE
// LIABLE FOR ANY DIRECT, INDIRECT, INCIDENTAL, SPECIAL, EXEMPLARY, OR
// CONSEQUENTIAL DAMAGES (INCLUDING, BUT NOT LIMITED TO, PROCUREMENT OF
// SUBSTITUTE GOODS OR SERVICES; LOSS OF USE, DATA, OR PROFITS; OR BUSINESS
// INTERRUPTION) HOWEVER CAUSED AND ON ANY THEORY OF LIABILITY, WHETHER IN
// CONTRACT, STRICT LIABILITY, OR TORT (INCLUDING NEGLIGENCE OR OTHERWISE)
// ARISING IN ANY WAY OUT OF THE USE OF THIS SOFTWARE, EVEN IF ADVISED OF THE
// POSSIBILITY OF SUCH DAMAGE.


hold_switch_for_packet=1;

vc_buf_size = 16;


wait_for_tail_credit = 0;

//
// Router architecture
//
vc_allocator = separable_input_first; 
sw_allocator = separable_input_first;
alloc_iters  = 1;

credit_delay   = 2;
routing_delay  = 0;
vc_alloc_delay = 1;
sw_alloc_delay = 1;
st_final_delay = 1;

input_speedup     = 1;
output_speedup    = 1;
internal_speedup  = 1.0;


warmup_periods = 3;
sim_count          = 1;

sample_period  = 1000;  

routing_function = nca;
num_vcs     = 4;

priority = none;
traffic = bitcomp;


injection_rate = 0.45;
packet_size = 1;
injection_rate_uses_flits=1;

topology = fattree;

k  = 8;
n  = 4;
t = 4;

watch_file = watchfile.txt;
watch_out=-;
stats_out = examples/fattree_config_0.45_4_bitcomp.m;

END Configuration File: examples/fattree_config_0.45_4_bitcomp
Fat Tree
 k = 8 levels = 4
 each switch - total radix =  16
 # of switches = 2048
 # of channels = 24576
 # of nodes ( size of network ) = 4096
 tapering factor = 4
0 | node8 | Enqueuing flit 1 (packet 1) at time 0.
0 | node9 | Enqueuing flit 2 (packet 2) at time 0.
0 | node11 | Enqueuing flit 3 (packet 3) at time 0.
0 | node12 | Enqueuing flit 4 (packet 4) at time 0.
0 | node13 | Enqueuing flit 5 (packet 5) at time 0.
0 | node14 | Enqueuing flit 6 (packet 6) at time 0.
0 | node15 | Enqueuing flit 7 (packet 7) at time 0.
0 | node18 | Enqueuing flit 8 (packet 8) at time 0.
0 | node19 | Enqueuing flit 9 (packet 9) at time 0.
0 | node20 | Enqueuing flit 10 (packet 10) at time 0.
0 | traffic_manager | Finding output VC for flit 1:
0 | traffic_manager |   Selected output VC 0.
0 | node8 | Generating lookahead routing info for flit 1.
0 | node8 | Injecting flit 1 into subnet 0 at time 0 with priority 0.
0 | traffic_manager | Finding output VC for flit 2:
0 | traffic_manager |   Selected output VC 0.
0 | node9 | Generating lookahead routing info for flit 2.
0 | node9 | Injecting flit 2 into subnet 0 at time 0 with priority 0.
0 | traffic_manager | Finding output VC for flit 3:
0 | traffic_manager |   Selected output VC 0.
0 | node11 | Generating lookahead routing info for flit 3.
0 | node11 | Injecting flit 3 into subnet 0 at time 0 with priority 0.
0 | traffic_manager | Finding output VC for flit 4:
0 | traffic_manager |   Selected output VC 0.
0 | node12 | Generating lookahead routing info for flit 4.
0 | node12 | Injecting flit 4 into subnet 0 at time 0 with priority 0.
0 | traffic_manager | Finding output VC for flit 5:
0 | traffic_manager |   Selected output VC 0.
0 | node13 | Generating lookahead routing info for flit 5.
0 | node13 | Injecting flit 5 into subnet 0 at time 0 with priority 0.
0 | traffic_manager | Finding output VC for flit 6:
0 | traffic_manager |   Selected output VC 0.
0 | node14 | Generating lookahead routing info for flit 6.
0 | node14 | Injecting flit 6 into subnet 0 at time 0 with priority 0.
0 | traffic_manager | Finding output VC for flit 7:
0 | traffic_manager |   Selected output VC 0.
0 | node15 | Generating lookahead routing info for flit 7.
0 | node15 | Injecting flit 7 into subnet 0 at time 0 with priority 0.
0 | traffic_manager | Finding output VC for flit 8:
0 | traffic_manager |   Selected output VC 0.
0 | node18 | Generating lookahead routing info for flit 8.
0 | node18 | Injecting flit 8 into subnet 0 at time 0 with priority 0.
0 | traffic_manager | Finding output VC for flit 9:
0 | traffic_manager |   Selected output VC 0.
0 | node19 | Generating lookahead routing info for flit 9.
0 | node19 | Injecting flit 9 into subnet 0 at time 0 with priority 0.
0 | traffic_manager | Finding output VC for flit 10:
0 | traffic_manager |   Selected output VC 0.
0 | node20 | Generating lookahead routing info for flit 10.
0 | node20 | Injecting flit 10 into subnet 0 at time 0 with priority 0.
1 | network_0/network_0_fchan_ingress8 | Beginning channel traversal for flit 1 with delay 1.
1 | network_0/network_0_fchan_ingress9 | Beginning channel traversal for flit 2 with delay 1.
1 | network_0/network_0_fchan_ingress11 | Beginning channel traversal for flit 3 with delay 1.
1 | network_0/network_0_fchan_ingress12 | Beginning channel traversal for flit 4 with delay 1.
1 | network_0/network_0_fchan_ingress13 | Beginning channel traversal for flit 5 with delay 1.
1 | network_0/network_0_fchan_ingress14 | Beginning channel traversal for flit 6 with delay 1.
1 | network_0/network_0_fchan_ingress15 | Beginning channel traversal for flit 7 with delay 1.
1 | network_0/network_0_fchan_ingress18 | Beginning channel traversal for flit 8 with delay 1.
1 | network_0/network_0_fchan_ingress19 | Beginning channel traversal for flit 9 with delay 1.
1 | network_0/network_0_fchan_ingress20 | Beginning channel traversal for flit 10 with delay 1.
1 | network_0/network_0_fchan_ingress8 | Completed channel traversal for flit 1.
1 | network_0/network_0_fchan_ingress9 | Completed channel traversal for flit 2.
1 | network_0/network_0_fchan_ingress11 | Completed channel traversal for flit 3.
1 | network_0/network_0_fchan_ingress12 | Completed channel traversal for flit 4.
1 | network_0/network_0_fchan_ingress13 | Completed channel traversal for flit 5.
1 | network_0/network_0_fchan_ingress14 | Completed channel traversal for flit 6.
1 | network_0/network_0_fchan_ingress15 | Completed channel traversal for flit 7.
1 | network_0/network_0_fchan_ingress18 | Completed channel traversal for flit 8.
1 | network_0/network_0_fchan_ingress19 | Completed channel traversal for flit 9.
1 | network_0/network_0_fchan_ingress20 | Completed channel traversal for flit 10.
2 | network_0/router_level3_1 | Received flit 1 from channel at input 0.
2 | network_0/router_level3_1 | Received flit 2 from channel at input 1.
2 | network_0/router_level3_1 | Received flit 3 from channel at input 3.
2 | network_0/router_level3_1 | Received flit 4 from channel at input 4.
2 | network_0/router_level3_1 | Received flit 5 from channel at input 5.
2 | network_0/router_level3_1 | Received flit 6 from channel at input 6.
2 | network_0/router_level3_1 | Received flit 7 from channel at input 7.
2 | network_0/router_level3_2 | Received flit 8 from channel at input 2.
2 | network_0/router_level3_2 | Received flit 9 from channel at input 3.
2 | network_0/router_level3_2 | Received flit 10 from channel at input 4.
2 | network_0/router_level3_1 | Adding flit 1 to VC 0 at input 0 (state: idle, empty).
2 | network_0/router_level3_1 | Using precomputed lookahead routing information for VC 0 at input 0 (front: 1).
2 | network_0/router_level3_1/buf_0/vc_0 | Changing state from idle to vc_alloc.
2 | network_0/router_level3_1 | Adding flit 2 to VC 0 at input 1 (state: idle, empty).
2 | network_0/router_level3_1 | Using precomputed lookahead routing information for VC 0 at input 1 (front: 2).
2 | network_0/router_level3_1/buf_1/vc_0 | Changing state from idle to vc_alloc.
2 | network_0/router_level3_1 | Adding flit 3 to VC 0 at input 3 (state: idle, empty).
2 | network_0/router_level3_1 | Using precomputed lookahead routing information for VC 0 at input 3 (front: 3).
2 | network_0/router_level3_1/buf_3/vc_0 | Changing state from idle to vc_alloc.
2 | network_0/router_level3_1 | Adding flit 4 to VC 0 at input 4 (state: idle, empty).
2 | network_0/router_level3_1 | Using precomputed lookahead routing information for VC 0 at input 4 (front: 4).
2 | network_0/router_level3_1/buf_4/vc_0 | Changing state from idle to vc_alloc.
2 | network_0/router_level3_1 | Adding flit 5 to VC 0 at input 5 (state: idle, empty).
2 | network_0/router_level3_1 | Using precomputed lookahead routing information for VC 0 at input 5 (front: 5).
2 | network_0/router_level3_1/buf_5/vc_0 | Changing state from idle to vc_alloc.
2 | network_0/router_level3_1 | Adding flit 6 to VC 0 at input 6 (state: idle, empty).
2 | network_0/router_level3_1 | Using precomputed lookahead routing information for VC 0 at input 6 (front: 6).
2 | network_0/router_level3_1/buf_6/vc_0 | Changing state from idle to vc_alloc.
2 | network_0/router_level3_1 | Adding flit 7 to VC 0 at input 7 (state: idle, empty).
2 | network_0/router_level3_1 | Using precomputed lookahead routing information for VC 0 at input 7 (front: 7).
2 | network_0/router_level3_1/buf_7/vc_0 | Changing state from idle to vc_alloc.
2 | network_0/router_level3_1 | Beginning VC allocation for VC 0 at input 0 (front: 1).
2 | network_0/router_level3_1 |   Requesting VC 0 at output 10 (in_pri: 0, out_pri: 0).
2 | network_0/router_level3_1 |   Requesting VC 1 at output 10 (in_pri: 0, out_pri: 0).
2 | network_0/router_level3_1 |   Requesting VC 2 at output 10 (in_pri: 0, out_pri: 0).
2 | network_0/router_level3_1 |   Requesting VC 3 at output 10 (in_pri: 0, out_pri: 0).
2 | network_0/router_level3_1 | Beginning VC allocation for VC 0 at input 1 (front: 2).
2 | network_0/router_level3_1 |   Requesting VC 0 at output 15 (in_pri: 0, out_pri: 0).
2 | network_0/router_level3_1 |   Requesting VC 1 at output 15 (in_pri: 0, out_pri: 0).
2 | network_0/router_level3_1 |   Requesting VC 2 at output 15 (in_pri: 0, out_pri: 0).
2 | network_0/router_level3_1 |   Requesting VC 3 at output 15 (in_pri: 0, out_pri: 0).
2 | network_0/router_level3_1 | Beginning VC allocation for VC 0 at input 3 (front: 3).
2 | network_0/router_level3_1 |   Requesting VC 0 at output 11 (in_pri: 0, out_pri: 0).
2 | network_0/router_level3_1 |   Requesting VC 1 at output 11 (in_pri: 0, out_pri: 0).
2 | network_0/router_level3_1 |   Requesting VC 2 at output 11 (in_pri: 0, out_pri: 0).
2 | network_0/router_level3_1 |   Requesting VC 3 at output 11 (in_pri: 0, out_pri: 0).
2 | network_0/router_level3_1 | Beginning VC allocation for VC 0 at input 4 (front: 4).
2 | network_0/router_level3_1 |   Requesting VC 0 at output 13 (in_pri: 0, out_pri: 0).
2 | network_0/router_level3_1 |   Requesting VC 1 at output 13 (in_pri: 0, out_pri: 0).
2 | network_0/router_level3_1 |   Requesting VC 2 at output 13 (in_pri: 0, out_pri: 0).
2 | network_0/router_level3_1 |   Requesting VC 3 at output 13 (in_pri: 0, out_pri: 0).
2 | network_0/router_level3_1 | Beginning VC allocation for VC 0 at input 5 (front: 5).
2 | network_0/router_level3_1 |   Requesting VC 0 at output 10 (in_pri: 0, out_pri: 0).
2 | network_0/router_level3_1 |   Requesting VC 1 at output 10 (in_pri: 0, out_pri: 0).
2 | network_0/router_level3_1 |   Requesting VC 2 at output 10 (in_pri: 0, out_pri: 0).
2 | network_0/router_level3_1 |   Requesting VC 3 at output 10 (in_pri: 0, out_pri: 0).
2 | network_0/router_level3_1 | Beginning VC allocation for VC 0 at input 6 (front: 6).
2 | network_0/router_level3_1 |   Requesting VC 0 at output 8 (in_pri: 0, out_pri: 0).
2 | network_0/router_level3_1 |   Requesting VC 1 at output 8 (in_pri: 0, out_pri: 0).
2 | network_0/router_level3_1 |   Requesting VC 2 at output 8 (in_pri: 0, out_pri: 0).
2 | network_0/router_level3_1 |   Requesting VC 3 at output 8 (in_pri: 0, out_pri: 0).
2 | network_0/router_level3_1 | Beginning VC allocation for VC 0 at input 7 (front: 7).
2 | network_0/router_level3_1 |   Requesting VC 0 at output 9 (in_pri: 0, out_pri: 0).
2 | network_0/router_level3_1 |   Requesting VC 1 at output 9 (in_pri: 0, out_pri: 0).
2 | network_0/router_level3_1 |   Requesting VC 2 at output 9 (in_pri: 0, out_pri: 0).
2 | network_0/router_level3_1 |   Requesting VC 3 at output 9 (in_pri: 0, out_pri: 0).
2 | network_0/router_level3_1/vc_allocator | Input requests = [ 0 -> [ 40@0 41@0 42@0 43@0 ]  4 -> [ 60@0 61@0 62@0 63@0 ]  12 -> [ 44@0 45@0 46@0 47@0 ]  16 -> [ 52@0 53@0 54@0 55@0 ]  20 -> [ 40@0 41@0 42@0 43@0 ]  24 -> [ 32@0 33@0 34@0 35@0 ]  28 -> [ 36@0 37@0 38@0 39@0 ]  ], output requests = [ 32 -> [ 24@0 ]  33 -> [ 24@0 ]  34 -> [ 24@0 ]  35 -> [ 24@0 ]  36 -> [ 28@0 ]  37 -> [ 28@0 ]  38 -> [ 28@0 ]  39 -> [ 28@0 ]  40 -> [ 0@0 20@0 ]  41 -> [ 0@0 20@0 ]  42 -> [ 0@0 20@0 ]  43 -> [ 0@0 20@0 ]  44 -> [ 12@0 ]  45 -> [ 12@0 ]  46 -> [ 12@0 ]  47 -> [ 12@0 ]  52 -> [ 16@0 ]  53 -> [ 16@0 ]  54 -> [ 16@0 ]  55 -> [ 16@0 ]  60 -> [ 4@0 ]  61 -> [ 4@0 ]  62 -> [ 4@0 ]  63 -> [ 4@0 ]  ].
2 | network_0/router_level3_1/vc_allocator | Input grants = [ 0 -> 40  4 -> 60  12 -> 44  16 -> 52  24 -> 32  28 -> 36  ], output grants = [ 32 -> 24  36 -> 28  40 -> 0  44 -> 12  52 -> 16  60 -> 4  ].
2 | network_0/router_level3_1 | Assigning VC 0 at output 10 to VC 0 at input 0.
2 | network_0/router_level3_1 | Assigning VC 0 at output 15 to VC 0 at input 1.
2 | network_0/router_level3_1 | Assigning VC 0 at output 11 to VC 0 at input 3.
2 | network_0/router_level3_1 | Assigning VC 0 at output 13 to VC 0 at input 4.
2 | network_0/router_level3_1 | VC allocation failed for VC 0 at input 5.
2 | network_0/router_level3_1 | Assigning VC 0 at output 8 to VC 0 at input 6.
2 | network_0/router_level3_1 | Assigning VC 0 at output 9 to VC 0 at input 7.
2 | network_0/router_level3_1 | Completed VC allocation for VC 0 at input 0 (front: 1).
2 | network_0/router_level3_1 |   Acquiring assigned VC 0 at output 10.
2 | network_0/router_level3_1/buf_0/vc_0 | Changing state from vc_alloc to active.
2 | network_0/router_level3_1 | Completed VC allocation for VC 0 at input 1 (front: 2).
2 | network_0/router_level3_1 |   Acquiring assigned VC 0 at output 15.
2 | network_0/router_level3_1/buf_1/vc_0 | Changing state from vc_alloc to active.
2 | network_0/router_level3_1 | Completed VC allocation for VC 0 at input 3 (front: 3).
2 | network_0/router_level3_1 |   Acquiring assigned VC 0 at output 11.
2 | network_0/router_level3_1/buf_3/vc_0 | Changing state from vc_alloc to active.
2 | network_0/router_level3_1 | Completed VC allocation for VC 0 at input 4 (front: 4).
2 | network_0/router_level3_1 |   Acquiring assigned VC 0 at output 13.
2 | network_0/router_level3_1/buf_4/vc_0 | Changing state from vc_alloc to active.
2 | network_0/router_level3_1 | Completed VC allocation for VC 0 at input 5 (front: 5).
2 | network_0/router_level3_1 |   No output VC allocated.
2 | network_0/router_level3_1 | Completed VC allocation for VC 0 at input 6 (front: 6).
2 | network_0/router_level3_1 |   Acquiring assigned VC 0 at output 8.
2 | network_0/router_level3_1/buf_6/vc_0 | Changing state from vc_alloc to active.
2 | network_0/router_level3_1 | Completed VC allocation for VC 0 at input 7 (front: 7).
2 | network_0/router_level3_1 |   Acquiring assigned VC 0 at output 9.
2 | network_0/router_level3_1/buf_7/vc_0 | Changing state from vc_alloc to active.
2 | network_0/router_level3_2 | Adding flit 8 to VC 0 at input 2 (state: idle, empty).
2 | network_0/router_level3_2 | Using precomputed lookahead routing information for VC 0 at input 2 (front: 8).
2 | network_0/router_level3_2/buf_2/vc_0 | Changing state from idle to vc_alloc.
2 | network_0/router_level3_2 | Adding flit 9 to VC 0 at input 3 (state: idle, empty).
2 | network_0/router_level3_2 | Using precomputed lookahead routing information for VC 0 at input 3 (front: 9).
2 | network_0/router_level3_2/buf_3/vc_0 | Changing state from idle to vc_alloc.
2 | network_0/router_level3_2 | Adding flit 10 to VC 0 at input 4 (state: idle, empty).
2 | network_0/router_level3_2 | Using precomputed lookahead routing information for VC 0 at input 4 (front: 10).
2 | network_0/router_level3_2/buf_4/vc_0 | Changing state from idle to vc_alloc.
2 | network_0/router_level3_2 | Beginning VC allocation for VC 0 at input 2 (front: 8).
2 | network_0/router_level3_2 |   Requesting VC 0 at output 12 (in_pri: 0, out_pri: 0).
2 | network_0/router_level3_2 |   Requesting VC 1 at output 12 (in_pri: 0, out_pri: 0).
2 | network_0/router_level3_2 |   Requesting VC 2 at output 12 (in_pri: 0, out_pri: 0).
2 | network_0/router_level3_2 |   Requesting VC 3 at output 12 (in_pri: 0, out_pri: 0).
2 | network_0/router_level3_2 | Beginning VC allocation for VC 0 at input 3 (front: 9).
2 | network_0/router_level3_2 |   Requesting VC 0 at output 9 (in_pri: 0, out_pri: 0).
2 | network_0/router_level3_2 |   Requesting VC 1 at output 9 (in_pri: 0, out_pri: 0).
2 | network_0/router_level3_2 |   Requesting VC 2 at output 9 (in_pri: 0, out_pri: 0).
2 | network_0/router_level3_2 |   Requesting VC 3 at output 9 (in_pri: 0, out_pri: 0).
2 | network_0/router_level3_2 | Beginning VC allocation for VC 0 at input 4 (front: 10).
2 | network_0/router_level3_2 |   Requesting VC 0 at output 10 (in_pri: 0, out_pri: 0).
2 | network_0/router_level3_2 |   Requesting VC 1 at output 10 (in_pri: 0, out_pri: 0).
2 | network_0/router_level3_2 |   Requesting VC 2 at output 10 (in_pri: 0, out_pri: 0).
2 | network_0/router_level3_2 |   Requesting VC 3 at output 10 (in_pri: 0, out_pri: 0).
2 | network_0/router_level3_2/vc_allocator | Input requests = [ 8 -> [ 48@0 49@0 50@0 51@0 ]  12 -> [ 36@0 37@0 38@0 39@0 ]  16 -> [ 40@0 41@0 42@0 43@0 ]  20 -> [ 32@0 33@0 34@0 35@0 ]  28 -> [ 48@0 49@0 50@0 51@0 ]  ], output requests = [ 32 -> [ 20@0 ]  33 -> [ 20@0 ]  34 -> [ 20@0 ]  35 -> [ 20@0 ]  36 -> [ 12@0 ]  37 -> [ 12@0 ]  38 -> [ 12@0 ]  39 -> [ 12@0 ]  40 -> [ 16@0 ]  41 -> [ 16@0 ]  42 -> [ 16@0 ]  43 -> [ 16@0 ]  48 -> [ 8@0 28@0 ]  49 -> [ 8@0 28@0 ]  50 -> [ 8@0 28@0 ]  51 -> [ 8@0 28@0 ]  ].
2 | network_0/router_level3_2/vc_allocator | Input grants = [ 8 -> 48  12 -> 36  16 -> 40  20 -> 32  ], output grants = [ 32 -> 20  36 -> 12  40 -> 16  48 -> 8  ].
2 | network_0/router_level3_2 | Assigning VC 0 at output 12 to VC 0 at input 2.
2 | network_0/router_level3_2 | Assigning VC 0 at output 9 to VC 0 at input 3.
2 | network_0/router_level3_2 | Assigning VC 0 at output 10 to VC 0 at input 4.
2 | network_0/router_level3_2 | Completed VC allocation for VC 0 at input 2 (front: 8).
2 | network_0/router_level3_2 |   Acquiring assigned VC 0 at output 12.
2 | network_0/router_level3_2/buf_2/vc_0 | Changing state from vc_alloc to active.
2 | network_0/router_level3_2 | Completed VC allocation for VC 0 at input 3 (front: 9).
2 | network_0/router_level3_2 |   Acquiring assigned VC 0 at output 9.
2 | network_0/router_level3_2/buf_3/vc_0 | Changing state from vc_alloc to active.
2 | network_0/router_level3_2 | Completed VC allocation for VC 0 at input 4 (front: 10).
2 | network_0/router_level3_2 |   Acquiring assigned VC 0 at output 10.
2 | network_0/router_level3_2/buf_4/vc_0 | Changing state from vc_alloc to active.
3 | network_0/router_level3_1 | Beginning VC allocation for VC 0 at input 5 (front: 5).
3 | network_0/router_level3_1 |   VC 0 at output 10 is in use by VC 0 at input 0 (front flit: 1).
3 | network_0/router_level3_1 |   Requesting VC 1 at output 10 (in_pri: 0, out_pri: 0).
3 | network_0/router_level3_1 |   Requesting VC 2 at output 10 (in_pri: 0, out_pri: 0).
3 | network_0/router_level3_1 |   Requesting VC 3 at output 10 (in_pri: 0, out_pri: 0).
3 | network_0/router_level3_1/vc_allocator | Input requests = [ 5 -> [ 37@0 38@0 39@0 ]  17 -> [ 33@0 34@0 35@0 ]  20 -> [ 41@0 42@0 43@0 ]  21 -> [ 45@0 46@0 47@0 ]  25 -> [ 61@0 62@0 63@0 ]  ], output requests = [ 33 -> [ 17@0 ]  34 -> [ 17@0 ]  35 -> [ 17@0 ]  37 -> [ 5@0 ]  38 -> [ 5@0 ]  39 -> [ 5@0 ]  41 -> [ 20@0 ]  42 -> [ 20@0 ]  43 -> [ 20@0 ]  45 -> [ 21@0 ]  46 -> [ 21@0 ]  47 -> [ 21@0 ]  61 -> [ 25@0 ]  62 -> [ 25@0 ]  63 -> [ 25@0 ]  ].
3 | network_0/router_level3_1/vc_allocator | Input grants = [ 5 -> 37  17 -> 33  20 -> 41  21 -> 45  25 -> 61  ], output grants = [ 33 -> 17  37 -> 5  41 -> 20  45 -> 21  61 -> 25  ].
3 | network_0/router_level3_1 | Assigning VC 1 at output 10 to VC 0 at input 5.
3 | network_0/router_level3_1 | Beginning switch allocation for VC 0 at input 0 (front: 1).
3 | network_0/router_level3_1 |   Requesting output 10.0 (non-spec, pri: 0).
3 | network_0/router_level3_1 | Beginning switch allocation for VC 0 at input 1 (front: 2).
3 | network_0/router_level3_1 |   Requesting output 15.0 (non-spec, pri: 0).
3 | network_0/router_level3_1 | Beginning switch allocation for VC 0 at input 3 (front: 3).
3 | network_0/router_level3_1 |   Requesting output 11.0 (non-spec, pri: 0).
3 | network_0/router_level3_1 | Beginning switch allocation for VC 0 at input 4 (front: 4).
3 | network_0/router_level3_1 |   Requesting output 13.0 (non-spec, pri: 0).
3 | network_0/router_level3_1 | Beginning switch allocation for VC 0 at input 6 (front: 6).
3 | network_0/router_level3_1 |   Requesting output 8.0 (non-spec, pri: 0).
3 | network_0/router_level3_1 | Beginning switch allocation for VC 0 at input 7 (front: 7).
3 | network_0/router_level3_1 |   Requesting output 9.0 (non-spec, pri: 0).
3 | network_0/router_level3_1/sw_allocator | Input requests = [ 0 -> [ 10@0 ]  1 -> [ 15@0 ]  3 -> [ 11@0 ]  4 -> [ 13@0 ]  6 -> [ 8@0 ]  7 -> [ 9@0 ]  ], output requests = [ 8 -> [ 6@0 ]  9 -> [ 7@0 ]  10 -> [ 0@0 ]  11 -> [ 3@0 ]  13 -> [ 4@0 ]  15 -> [ 1@0 ]  ].
3 | network_0/router_level3_1/sw_allocator | Input grants = [ 0 -> 10  1 -> 15  3 -> 11  4 -> 13  6 -> 8  7 -> 9  ], output grants = [ 8 -> 6  9 -> 7  10 -> 0  11 -> 3  13 -> 4  15 -> 1  ].
3 | network_0/router_level3_1 | Assigning output 10.0 to VC 0 at input 0.0.
3 | network_0/router_level3_1 | Assigning output 15.0 to VC 0 at input 1.0.
3 | network_0/router_level3_1 | Assigning output 11.0 to VC 0 at input 3.0.
3 | network_0/router_level3_1 | Assigning output 13.0 to VC 0 at input 4.0.
3 | network_0/router_level3_1 | Assigning output 8.0 to VC 0 at input 6.0.
3 | network_0/router_level3_1 | Assigning output 9.0 to VC 0 at input 7.0.
3 | network_0/router_level3_1 | Completed VC allocation for VC 0 at input 5 (front: 5).
3 | network_0/router_level3_1 |   Acquiring assigned VC 1 at output 10.
3 | network_0/router_level3_1/buf_5/vc_0 | Changing state from vc_alloc to active.
3 | network_0/router_level3_1 | Completed switch allocation for VC 0 at input 0 (front: 1).
3 | network_0/router_level3_1 |   Scheduling switch connection from input 0.0 to output 10.0.
3 | network_0/router_level3_1 | Updating lookahead routing information for flit 1.
3 | network_0/router_level3_1 | Completed switch allocation for VC 0 at input 1 (front: 2).
3 | network_0/router_level3_1 |   Scheduling switch connection from input 1.0 to output 15.0.
3 | network_0/router_level3_1 | Updating lookahead routing information for flit 2.
3 | network_0/router_level3_1 | Completed switch allocation for VC 0 at input 3 (front: 3).
3 | network_0/router_level3_1 |   Scheduling switch connection from input 3.0 to output 11.0.
3 | network_0/router_level3_1 | Updating lookahead routing information for flit 3.
3 | network_0/router_level3_1 | Completed switch allocation for VC 0 at input 4 (front: 4).
3 | network_0/router_level3_1 |   Scheduling switch connection from input 4.0 to output 13.0.
3 | network_0/router_level3_1 | Updating lookahead routing information for flit 4.
3 | network_0/router_level3_1 | Completed switch allocation for VC 0 at input 6 (front: 6).
3 | network_0/router_level3_1 |   Scheduling switch connection from input 6.0 to output 8.0.
3 | network_0/router_level3_1 | Updating lookahead routing information for flit 6.
3 | network_0/router_level3_1 | Completed switch allocation for VC 0 at input 7 (front: 7).
3 | network_0/router_level3_1 |   Scheduling switch connection from input 7.0 to output 9.0.
3 | network_0/router_level3_1 | Updating lookahead routing information for flit 7.
3 | network_0/router_level3_2 | Beginning switch allocation for VC 0 at input 2 (front: 8).
3 | network_0/router_level3_2 |   Requesting output 12.0 (non-spec, pri: 0).
3 | network_0/router_level3_2 | Beginning switch allocation for VC 0 at input 3 (front: 9).
3 | network_0/router_level3_2 |   Requesting output 9.0 (non-spec, pri: 0).
3 | network_0/router_level3_2 | Beginning switch allocation for VC 0 at input 4 (front: 10).
3 | network_0/router_level3_2 |   Requesting output 10.0 (non-spec, pri: 0).
3 | network_0/router_level3_2/sw_allocator | Input requests = [ 2 -> [ 12@0 ]  3 -> [ 9@0 ]  4 -> [ 10@0 ]  5 -> [ 8@0 ]  ], output requests = [ 8 -> [ 5@0 ]  9 -> [ 3@0 ]  10 -> [ 4@0 ]  12 -> [ 2@0 ]  ].
3 | network_0/router_level3_2/sw_allocator | Input grants = [ 2 -> 12  3 -> 9  4 -> 10  5 -> 8  ], output grants = [ 8 -> 5  9 -> 3  10 -> 4  12 -> 2  ].
3 | network_0/router_level3_2 | Assigning output 12.0 to VC 0 at input 2.0.
3 | network_0/router_level3_2 | Assigning output 9.0 to VC 0 at input 3.0.
3 | network_0/router_level3_2 | Assigning output 10.0 to VC 0 at input 4.0.
3 | network_0/router_level3_2 | Completed switch allocation for VC 0 at input 2 (front: 8).
3 | network_0/router_level3_2 |   Scheduling switch connection from input 2.0 to output 12.0.
3 | network_0/router_level3_2 | Updating lookahead routing information for flit 8.
3 | network_0/router_level3_2 | Completed switch allocation for VC 0 at input 3 (front: 9).
3 | network_0/router_level3_2 |   Scheduling switch connection from input 3.0 to output 9.0.
3 | network_0/router_level3_2 | Updating lookahead routing information for flit 9.
3 | network_0/router_level3_2 | Completed switch allocation for VC 0 at input 4 (front: 10).
3 | network_0/router_level3_2 |   Scheduling switch connection from input 4.0 to output 10.0.
3 | network_0/router_level3_2 | Updating lookahead routing information for flit 10.
4 | network_0/router_level3_1 | Beginning switch allocation for VC 0 at input 5 (front: 5).
4 | network_0/router_level3_1 |   Requesting output 10.0 (non-spec, pri: 0).
4 | network_0/router_level3_1/sw_allocator | Input requests = [ 1 -> [ 9@0 ]  4 -> [ 8@0 ]  5 -> [ 10@0 11@0 ]  6 -> [ 15@0 ]  ], output requests = [ 8 -> [ 4@0 ]  9 -> [ 1@0 ]  10 -> [ 5@0 ]  11 -> [ 5@0 ]  15 -> [ 6@0 ]  ].
4 | network_0/router_level3_1/sw_allocator | Input grants = [ 1 -> 9  4 -> 8  5 -> 10  6 -> 15  ], output grants = [ 8 -> 4  9 -> 1  10 -> 5  15 -> 6  ].
4 | network_0/router_level3_1 | Assigning output 10.0 to VC 0 at input 5.0.
4 | network_0/router_level3_1 | Beginning crossbar traversal for flit 1 from input 0.0 to output 10.0.
4 | network_0/router_level3_1 | Beginning crossbar traversal for flit 2 from input 1.0 to output 15.0.
4 | network_0/router_level3_1 | Beginning crossbar traversal for flit 3 from input 3.0 to output 11.0.
4 | network_0/router_level3_1 | Beginning crossbar traversal for flit 4 from input 4.0 to output 13.0.
4 | network_0/router_level3_1 | Beginning crossbar traversal for flit 6 from input 6.0 to output 8.0.
4 | network_0/router_level3_1 | Beginning crossbar traversal for flit 7 from input 7.0 to output 9.0.
4 | network_0/router_level3_1 | Completed switch allocation for VC 0 at input 5 (front: 5).
4 | network_0/router_level3_1 |   Scheduling switch connection from input 5.0 to output 10.0.
4 | network_0/router_level3_1 | Updating lookahead routing information for flit 5.
4 | network_0/router_level3_1 | Completed crossbar traversal for flit 1 from input 0.0 to output 10.0.
4 | network_0/router_level3_1 | Buffering flit 1 at output 10.
4 | network_0/router_level3_1 | Completed crossbar traversal for flit 2 from input 1.0 to output 15.0.
4 | network_0/router_level3_1 | Buffering flit 2 at output 15.
4 | network_0/router_level3_1 | Completed crossbar traversal for flit 3 from input 3.0 to output 11.0.
4 | network_0/router_level3_1 | Buffering flit 3 at output 11.
4 | network_0/router_level3_1 | Completed crossbar traversal for flit 4 from input 4.0 to output 13.0.
4 | network_0/router_level3_1 | Buffering flit 4 at output 13.
4 | network_0/router_level3_1 | Completed crossbar traversal for flit 6 from input 6.0 to output 8.0.
4 | network_0/router_level3_1 | Buffering flit 6 at output 8.
4 | network_0/router_level3_1 | Completed crossbar traversal for flit 7 from input 7.0 to output 9.0.
4 | network_0/router_level3_1 | Buffering flit 7 at output 9.
4 | network_0/router_level3_2 | Beginning crossbar traversal for flit 8 from input 2.0 to output 12.0.
4 | network_0/router_level3_2 | Beginning crossbar traversal for flit 9 from input 3.0 to output 9.0.
4 | network_0/router_level3_2 | Beginning crossbar traversal for flit 10 from input 4.0 to output 10.0.
4 | network_0/router_level3_2 | Completed crossbar traversal for flit 8 from input 2.0 to output 12.0.
4 | network_0/router_level3_2 | Buffering flit 8 at output 12.
4 | network_0/router_level3_2 | Completed crossbar traversal for flit 9 from input 3.0 to output 9.0.
4 | network_0/router_level3_2 | Buffering flit 9 at output 9.
4 | network_0/router_level3_2 | Completed crossbar traversal for flit 10 from input 4.0 to output 10.0.
4 | network_0/router_level3_2 | Buffering flit 10 at output 10.
4 | network_0/router_level3_1 | Sending flit 6 to channel at output 8.
4 | network_0/router_level3_1 | Sending flit 7 to channel at output 9.
4 | network_0/router_level3_1 | Sending flit 1 to channel at output 10.
4 | network_0/router_level3_1 | Sending flit 3 to channel at output 11.
4 | network_0/router_level3_1 | Sending flit 4 to channel at output 13.
4 | network_0/router_level3_1 | Sending flit 2 to channel at output 15.
4 | network_0/router_level3_2 | Sending flit 9 to channel at output 9.
4 | network_0/router_level3_2 | Sending flit 10 to channel at output 10.
4 | network_0/router_level3_2 | Sending flit 8 to channel at output 12.
5 | network_0/network_0_fchan_20488 | Beginning channel traversal for flit 6 with delay 1.
5 | network_0/network_0_fchan_20489 | Beginning channel traversal for flit 7 with delay 1.
5 | network_0/network_0_fchan_20490 | Beginning channel traversal for flit 1 with delay 1.
5 | network_0/network_0_fchan_20491 | Beginning channel traversal for flit 3 with delay 1.
5 | network_0/network_0_fchan_20493 | Beginning channel traversal for flit 4 with delay 1.
5 | network_0/network_0_fchan_20495 | Beginning channel traversal for flit 2 with delay 1.
5 | network_0/network_0_fchan_20497 | Beginning channel traversal for flit 9 with delay 1.
5 | network_0/network_0_fchan_20498 | Beginning channel traversal for flit 10 with delay 1.
5 | network_0/network_0_fchan_20500 | Beginning channel traversal for flit 8 with delay 1.
5 | network_0/router_level3_1 | Beginning crossbar traversal for flit 5 from input 5.0 to output 10.0.
5 | network_0/router_level3_1 | Completed crossbar traversal for flit 5 from input 5.0 to output 10.0.
5 | network_0/router_level3_1 | Buffering flit 5 at output 10.
5 | network_0/network_0_fchan_20488 | Completed channel traversal for flit 6.
5 | network_0/network_0_fchan_20489 | Completed channel traversal for flit 7.
5 | network_0/network_0_fchan_20490 | Completed channel traversal for flit 1.
5 | network_0/network_0_fchan_20491 | Completed channel traversal for flit 3.
5 | network_0/network_0_fchan_20493 | Completed channel traversal for flit 4.
5 | network_0/network_0_fchan_20495 | Completed channel traversal for flit 2.
5 | network_0/network_0_fchan_20497 | Completed channel traversal for flit 9.
5 | network_0/network_0_fchan_20498 | Completed channel traversal for flit 10.
5 | network_0/network_0_fchan_20500 | Completed channel traversal for flit 8.
5 | network_0/router_level3_1 | Sending flit 5 to channel at output 10.
6 | network_0/network_0_fchan_20490 | Beginning channel traversal for flit 5 with delay 1.
6 | network_0/router_level2_0 | Received flit 6 from channel at input 1.
6 | network_0/router_level2_1 | Received flit 7 from channel at input 1.
6 | network_0/router_level2_1 | Received flit 9 from channel at input 2.
6 | network_0/router_level2_2 | Received flit 1 from channel at input 1.
6 | network_0/router_level2_2 | Received flit 10 from channel at input 2.
6 | network_0/router_level2_3 | Received flit 3 from channel at input 1.
6 | network_0/router_level2_4 | Received flit 8 from channel at input 2.
6 | network_0/router_level2_5 | Received flit 4 from channel at input 1.
6 | network_0/router_level2_7 | Received flit 2 from channel at input 1.
6 | network_0/router_level2_0 | Adding flit 6 to VC 0 at input 1 (state: idle, empty).
6 | network_0/router_level2_0 | Using precomputed lookahead routing information for VC 0 at input 1 (front: 6).
6 | network_0/router_level2_0/buf_1/vc_0 | Changing state from idle to vc_alloc.
6 | network_0/router_level2_0 | Beginning VC allocation for VC 0 at input 1 (front: 6).
6 | network_0/router_level2_0 |   Requesting VC 0 at output 10 (in_pri: 0, out_pri: 0).
6 | network_0/router_level2_0 |   Requesting VC 1 at output 10 (in_pri: 0, out_pri: 0).
6 | network_0/router_level2_0 |   Requesting VC 2 at output 10 (in_pri: 0, out_pri: 0).
6 | network_0/router_level2_0 |   Requesting VC 3 at output 10 (in_pri: 0, out_pri: 0).
6 | network_0/router_level2_0/vc_allocator | Input requests = [ 4 -> [ 40@0 41@0 42@0 43@0 ]  8 -> [ 40@0 41@0 42@0 43@0 ]  20 -> [ 60@0 61@0 62@0 63@0 ]  28 -> [ 40@0 41@0 42@0 43@0 ]  ], output requests = [ 40 -> [ 4@0 8@0 28@0 ]  41 -> [ 4@0 8@0 28@0 ]  42 -> [ 4@0 8@0 28@0 ]  43 -> [ 4@0 8@0 28@0 ]  60 -> [ 20@0 ]  61 -> [ 20@0 ]  62 -> [ 20@0 ]  63 -> [ 20@0 ]  ].
6 | network_0/router_level2_0/vc_allocator | Input grants = [ 4 -> 40  20 -> 60  ], output grants = [ 40 -> 4  60 -> 20  ].
6 | network_0/router_level2_0 | Assigning VC 0 at output 10 to VC 0 at input 1.
6 | network_0/router_level2_0 | Completed VC allocation for VC 0 at input 1 (front: 6).
6 | network_0/router_level2_0 |   Acquiring assigned VC 0 at output 10.
6 | network_0/router_level2_0/buf_1/vc_0 | Changing state from vc_alloc to active.
6 | network_0/router_level2_1 | Adding flit 7 to VC 0 at input 1 (state: idle, empty).
6 | network_0/router_level2_1 | Using precomputed lookahead routing information for VC 0 at input 1 (front: 7).
6 | network_0/router_level2_1/buf_1/vc_0 | Changing state from idle to vc_alloc.
6 | network_0/router_level2_1 | Adding flit 9 to VC 0 at input 2 (state: idle, empty).
6 | network_0/router_level2_1 | Using precomputed lookahead routing information for VC 0 at input 2 (front: 9).
6 | network_0/router_level2_1/buf_2/vc_0 | Changing state from idle to vc_alloc.
6 | network_0/router_level2_1 | Beginning VC allocation for VC 0 at input 1 (front: 7).
6 | network_0/router_level2_1 |   Requesting VC 0 at output 15 (in_pri: 0, out_pri: 0).
6 | network_0/router_level2_1 |   Requesting VC 1 at output 15 (in_pri: 0, out_pri: 0).
6 | network_0/router_level2_1 |   Requesting VC 2 at output 15 (in_pri: 0, out_pri: 0).
6 | network_0/router_level2_1 |   Requesting VC 3 at output 15 (in_pri: 0, out_pri: 0).
6 | network_0/router_level2_1 | Beginning VC allocation for VC 0 at input 2 (front: 9).
6 | network_0/router_level2_1 |   Requesting VC 0 at output 11 (in_pri: 0, out_pri: 0).
6 | network_0/router_level2_1 |   Requesting VC 1 at output 11 (in_pri: 0, out_pri: 0).
6 | network_0/router_level2_1 |   Requesting VC 2 at output 11 (in_pri: 0, out_pri: 0).
6 | network_0/router_level2_1 |   Requesting VC 3 at output 11 (in_pri: 0, out_pri: 0).
6 | network_0/router_level2_1/vc_allocator | Input requests = [ 4 -> [ 60@0 61@0 62@0 63@0 ]  8 -> [ 44@0 45@0 46@0 47@0 ]  20 -> [ 36@0 37@0 38@0 39@0 ]  24 -> [ 48@0 49@0 50@0 51@0 ]  28 -> [ 56@0 57@0 58@0 59@0 ]  ], output requests = [ 36 -> [ 20@0 ]  37 -> [ 20@0 ]  38 -> [ 20@0 ]  39 -> [ 20@0 ]  44 -> [ 8@0 ]  45 -> [ 8@0 ]  46 -> [ 8@0 ]  47 -> [ 8@0 ]  48 -> [ 24@0 ]  49 -> [ 24@0 ]  50 -> [ 24@0 ]  51 -> [ 24@0 ]  56 -> [ 28@0 ]  57 -> [ 28@0 ]  58 -> [ 28@0 ]  59 -> [ 28@0 ]  60 -> [ 4@0 ]  61 -> [ 4@0 ]  62 -> [ 4@0 ]  63 -> [ 4@0 ]  ].
6 | network_0/router_level2_1/vc_allocator | Input grants = [ 4 -> 60  8 -> 44  20 -> 36  24 -> 48  28 -> 56  ], output grants = [ 36 -> 20  44 -> 8  48 -> 24  56 -> 28  60 -> 4  ].
6 | network_0/router_level2_1 | Assigning VC 0 at output 15 to VC 0 at input 1.
6 | network_0/router_level2_1 | Assigning VC 0 at output 11 to VC 0 at input 2.
6 | network_0/router_level2_1 | Completed VC allocation for VC 0 at input 1 (front: 7).
6 | network_0/router_level2_1 |   Acquiring assigned VC 0 at output 15.
6 | network_0/router_level2_1/buf_1/vc_0 | Changing state from vc_alloc to active.
6 | network_0/router_level2_1 | Completed VC allocation for VC 0 at input 2 (front: 9).
6 | network_0/router_level2_1 |   Acquiring assigned VC 0 at output 11.
6 | network_0/router_level2_1/buf_2/vc_0 | Changing state from vc_alloc to active.
6 | network_0/router_level2_2 | Adding flit 1 to VC 0 at input 1 (state: idle, empty).
6 | network_0/router_level2_2 | Using precomputed lookahead routing information for VC 0 at input 1 (front: 1).
6 | network_0/router_level2_2/buf_1/vc_0 | Changing state from idle to vc_alloc.
6 | network_0/router_level2_2 | Adding flit 10 to VC 0 at input 2 (state: idle, empty).
6 | network_0/router_level2_2 | Using precomputed lookahead routing information for VC 0 at input 2 (front: 10).
6 | network_0/router_level2_2/buf_2/vc_0 | Changing state from idle to vc_alloc.
6 | network_0/router_level2_2 | Beginning VC allocation for VC 0 at input 1 (front: 1).
6 | network_0/router_level2_2 |   Requesting VC 0 at output 9 (in_pri: 0, out_pri: 0).
6 | network_0/router_level2_2 |   Requesting VC 1 at output 9 (in_pri: 0, out_pri: 0).
6 | network_0/router_level2_2 |   Requesting VC 2 at output 9 (in_pri: 0, out_pri: 0).
6 | network_0/router_level2_2 |   Requesting VC 3 at output 9 (in_pri: 0, out_pri: 0).
6 | network_0/router_level2_2 | Beginning VC allocation for VC 0 at input 2 (front: 10).
6 | network_0/router_level2_2 |   Requesting VC 0 at output 13 (in_pri: 0, out_pri: 0).
6 | network_0/router_level2_2 |   Requesting VC 1 at output 13 (in_pri: 0, out_pri: 0).
6 | network_0/router_level2_2 |   Requesting VC 2 at output 13 (in_pri: 0, out_pri: 0).
6 | network_0/router_level2_2 |   Requesting VC 3 at output 13 (in_pri: 0, out_pri: 0).
6 | network_0/router_level2_2/vc_allocator | Input requests = [ 4 -> [ 36@0 37@0 38@0 39@0 ]  8 -> [ 52@0 53@0 54@0 55@0 ]  16 -> [ 52@0 53@0 54@0 55@0 ]  ], output requests = [ 36 -> [ 4@0 ]  37 -> [ 4@0 ]  38 -> [ 4@0 ]  39 -> [ 4@0 ]  52 -> [ 8@0 16@0 ]  53 -> [ 8@0 16@0 ]  54 -> [ 8@0 16@0 ]  55 -> [ 8@0 16@0 ]  ].
6 | network_0/router_level2_2/vc_allocator | Input grants = [ 4 -> 36  8 -> 52  ], output grants = [ 36 -> 4  52 -> 8  ].
6 | network_0/router_level2_2 | Assigning VC 0 at output 9 to VC 0 at input 1.
6 | network_0/router_level2_2 | Assigning VC 0 at output 13 to VC 0 at input 2.
6 | network_0/router_level2_2 | Completed VC allocation for VC 0 at input 1 (front: 1).
6 | network_0/router_level2_2 |   Acquiring assigned VC 0 at output 9.
6 | network_0/router_level2_2/buf_1/vc_0 | Changing state from vc_alloc to active.
6 | network_0/router_level2_2 | Completed VC allocation for VC 0 at input 2 (front: 10).
6 | network_0/router_level2_2 |   Acquiring assigned VC 0 at output 13.
6 | network_0/router_level2_2/buf_2/vc_0 | Changing state from vc_alloc to active.
6 | network_0/router_level2_3 | Adding flit 3 to VC 0 at input 1 (state: idle, empty).
6 | network_0/router_level2_3 | Using precomputed lookahead routing information for VC 0 at input 1 (front: 3).
6 | network_0/router_level2_3/buf_1/vc_0 | Changing state from idle to vc_alloc.
6 | network_0/router_level2_3 | Beginning VC allocation for VC 0 at input 1 (front: 3).
6 | network_0/router_level2_3 |   Requesting VC 0 at output 11 (in_pri: 0, out_pri: 0).
6 | network_0/router_level2_3 |   Requesting VC 1 at output 11 (in_pri: 0, out_pri: 0).
6 | network_0/router_level2_3 |   Requesting VC 2 at output 11 (in_pri: 0, out_pri: 0).
6 | network_0/router_level2_3 |   Requesting VC 3 at output 11 (in_pri: 0, out_pri: 0).
6 | network_0/router_level2_3/vc_allocator | Input requests = [ 4 -> [ 44@0 45@0 46@0 47@0 ]  ], output requests = [ 44 -> [ 4@0 ]  45 -> [ 4@0 ]  46 -> [ 4@0 ]  47 -> [ 4@0 ]  ].
6 | network_0/router_level2_3/vc_allocator | Input grants = [ 4 -> 44  ], output grants = [ 44 -> 4  ].
6 | network_0/router_level2_3 | Assigning VC 0 at output 11 to VC 0 at input 1.
6 | network_0/router_level2_3 | Completed VC allocation for VC 0 at input 1 (front: 3).
6 | network_0/router_level2_3 |   Acquiring assigned VC 0 at output 11.
6 | network_0/router_level2_3/buf_1/vc_0 | Changing state from vc_alloc to active.
6 | network_0/router_level2_4 | Adding flit 8 to VC 0 at input 2 (state: idle, empty).
6 | network_0/router_level2_4 | Using precomputed lookahead routing information for VC 0 at input 2 (front: 8).
6 | network_0/router_level2_4/buf_2/vc_0 | Changing state from idle to vc_alloc.
6 | network_0/router_level2_4 | Beginning VC allocation for VC 0 at input 2 (front: 8).
6 | network_0/router_level2_4 |   Requesting VC 0 at output 15 (in_pri: 0, out_pri: 0).
6 | network_0/router_level2_4 |   Requesting VC 1 at output 15 (in_pri: 0, out_pri: 0).
6 | network_0/router_level2_4 |   Requesting VC 2 at output 15 (in_pri: 0, out_pri: 0).
6 | network_0/router_level2_4 |   Requesting VC 3 at output 15 (in_pri: 0, out_pri: 0).
6 | network_0/router_level2_4/vc_allocator | Input requests = [ 8 -> [ 60@0 61@0 62@0 63@0 ]  12 -> [ 56@0 57@0 58@0 59@0 ]  24 -> [ 48@0 49@0 50@0 51@0 ]  ], output requests = [ 48 -> [ 24@0 ]  49 -> [ 24@0 ]  50 -> [ 24@0 ]  51 -> [ 24@0 ]  56 -> [ 12@0 ]  57 -> [ 12@0 ]  58 -> [ 12@0 ]  59 -> [ 12@0 ]  60 -> [ 8@0 ]  61 -> [ 8@0 ]  62 -> [ 8@0 ]  63 -> [ 8@0 ]  ].
6 | network_0/router_level2_4/vc_allocator | Input grants = [ 8 -> 60  12 -> 56  24 -> 48  ], output grants = [ 48 -> 24  56 -> 12  60 -> 8  ].
6 | network_0/router_level2_4 | Assigning VC 0 at output 15 to VC 0 at input 2.
6 | network_0/router_level2_4 | Completed VC allocation for VC 0 at input 2 (front: 8).
6 | network_0/router_level2_4 |   Acquiring assigned VC 0 at output 15.
6 | network_0/router_level2_4/buf_2/vc_0 | Changing state from vc_alloc to active.
6 | network_0/router_level2_5 | Adding flit 4 to VC 0 at input 1 (state: idle, empty).
6 | network_0/router_level2_5 | Using precomputed lookahead routing information for VC 0 at input 1 (front: 4).
6 | network_0/router_level2_5/buf_1/vc_0 | Changing state from idle to vc_alloc.
6 | network_0/router_level2_5 | Beginning VC allocation for VC 0 at input 1 (front: 4).
6 | network_0/router_level2_5 |   Requesting VC 0 at output 13 (in_pri: 0, out_pri: 0).
6 | network_0/router_level2_5 |   Requesting VC 1 at output 13 (in_pri: 0, out_pri: 0).
6 | network_0/router_level2_5 |   Requesting VC 2 at output 13 (in_pri: 0, out_pri: 0).
6 | network_0/router_level2_5 |   Requesting VC 3 at output 13 (in_pri: 0, out_pri: 0).
6 | network_0/router_level2_5/vc_allocator | Input requests = [ 0 -> [ 60@0 61@0 62@0 63@0 ]  4 -> [ 52@0 53@0 54@0 55@0 ]  ], output requests = [ 52 -> [ 4@0 ]  53 -> [ 4@0 ]  54 -> [ 4@0 ]  55 -> [ 4@0 ]  60 -> [ 0@0 ]  61 -> [ 0@0 ]  62 -> [ 0@0 ]  63 -> [ 0@0 ]  ].
6 | network_0/router_level2_5/vc_allocator | Input grants = [ 0 -> 60  4 -> 52  ], output grants = [ 52 -> 4  60 -> 0  ].
6 | network_0/router_level2_5 | Assigning VC 0 at output 13 to VC 0 at input 1.
6 | network_0/router_level2_5 | Completed VC allocation for VC 0 at input 1 (front: 4).
6 | network_0/router_level2_5 |   Acquiring assigned VC 0 at output 13.
6 | network_0/router_level2_5/buf_1/vc_0 | Changing state from vc_alloc to active.
6 | network_0/router_level2_7 | Adding flit 2 to VC 0 at input 1 (state: idle, empty).
6 | network_0/router_level2_7 | Using precomputed lookahead routing information for VC 0 at input 1 (front: 2).
6 | network_0/router_level2_7/buf_1/vc_0 | Changing state from idle to vc_alloc.
6 | network_0/router_level2_7 | Beginning VC allocation for VC 0 at input 1 (front: 2).
6 | network_0/router_level2_7 |   Requesting VC 0 at output 8 (in_pri: 0, out_pri: 0).
6 | network_0/router_level2_7 |   Requesting VC 1 at output 8 (in_pri: 0, out_pri: 0).
6 | network_0/router_level2_7 |   Requesting VC 2 at output 8 (in_pri: 0, out_pri: 0).
6 | network_0/router_level2_7 |   Requesting VC 3 at output 8 (in_pri: 0, out_pri: 0).
6 | network_0/router_level2_7/vc_allocator | Input requests = [ 4 -> [ 32@0 33@0 34@0 35@0 ]  12 -> [ 32@0 33@0 34@0 35@0 ]  20 -> [ 48@0 49@0 50@0 51@0 ]  ], output requests = [ 32 -> [ 4@0 12@0 ]  33 -> [ 4@0 12@0 ]  34 -> [ 4@0 12@0 ]  35 -> [ 4@0 12@0 ]  48 -> [ 20@0 ]  49 -> [ 20@0 ]  50 -> [ 20@0 ]  51 -> [ 20@0 ]  ].
6 | network_0/router_level2_7/vc_allocator | Input grants = [ 4 -> 32  20 -> 48  ], output grants = [ 32 -> 4  48 -> 20  ].
6 | network_0/router_level2_7 | Assigning VC 0 at output 8 to VC 0 at input 1.
6 | network_0/router_level2_7 | Completed VC allocation for VC 0 at input 1 (front: 2).
6 | network_0/router_level2_7 |   Acquiring assigned VC 0 at output 8.
6 | network_0/router_level2_7/buf_1/vc_0 | Changing state from vc_alloc to active.
6 | network_0/network_0_fchan_20490 | Completed channel traversal for flit 5.
7 | network_0/router_level2_2 | Received flit 5 from channel at input 1.
7 | network_0/router_level2_0 | Beginning switch allocation for VC 0 at input 1 (front: 6).
7 | network_0/router_level2_0 |   Requesting output 10.0 (non-spec, pri: 0).
7 | network_0/router_level2_0/sw_allocator | Input requests = [ 1 -> [ 10@0 ]  5 -> [ 15@0 ]  ], output requests = [ 10 -> [ 1@0 ]  15 -> [ 5@0 ]  ].
7 | network_0/router_level2_0/sw_allocator | Input grants = [ 1 -> 10  5 -> 15  ], output grants = [ 10 -> 1  15 -> 5  ].
7 | network_0/router_level2_0 | Assigning output 10.0 to VC 0 at input 1.0.
7 | network_0/router_level2_0 | Completed switch allocation for VC 0 at input 1 (front: 6).
7 | network_0/router_level2_0 |   Scheduling switch connection from input 1.0 to output 10.0.
7 | network_0/router_level2_0 | Updating lookahead routing information for flit 6.
7 | network_0/router_level2_1 | Beginning switch allocation for VC 0 at input 1 (front: 7).
7 | network_0/router_level2_1 |   Requesting output 15.0 (non-spec, pri: 0).
7 | network_0/router_level2_1 | Beginning switch allocation for VC 0 at input 2 (front: 9).
7 | network_0/router_level2_1 |   Requesting output 11.0 (non-spec, pri: 0).
7 | network_0/router_level2_1/sw_allocator | Input requests = [ 1 -> [ 15@0 ]  2 -> [ 11@0 ]  5 -> [ 9@0 ]  6 -> [ 12@0 ]  7 -> [ 14@0 ]  ], output requests = [ 9 -> [ 5@0 ]  11 -> [ 2@0 ]  12 -> [ 6@0 ]  14 -> [ 7@0 ]  15 -> [ 1@0 ]  ].
7 | network_0/router_level2_1/sw_allocator | Input grants = [ 1 -> 15  2 -> 11  5 -> 9  6 -> 12  7 -> 14  ], output grants = [ 9 -> 5  11 -> 2  12 -> 6  14 -> 7  15 -> 1  ].
7 | network_0/router_level2_1 | Assigning output 15.0 to VC 0 at input 1.0.
7 | network_0/router_level2_1 | Assigning output 11.0 to VC 0 at input 2.0.
7 | network_0/router_level2_1 | Completed switch allocation for VC 0 at input 1 (front: 7).
7 | network_0/router_level2_1 |   Scheduling switch connection from input 1.0 to output 15.0.
7 | network_0/router_level2_1 | Updating lookahead routing information for flit 7.
7 | network_0/router_level2_1 | Completed switch allocation for VC 0 at input 2 (front: 9).
7 | network_0/router_level2_1 |   Scheduling switch connection from input 2.0 to output 11.0.
7 | network_0/router_level2_1 | Updating lookahead routing information for flit 9.
7 | network_0/router_level2_2 | Adding flit 5 to VC 1 at input 1 (state: idle, empty).
7 | network_0/router_level2_2 | Using precomputed lookahead routing information for VC 1 at input 1 (front: 5).
7 | network_0/router_level2_2/buf_1/vc_1 | Changing state from idle to vc_alloc.
7 | network_0/router_level2_2 | Beginning VC allocation for VC 1 at input 1 (front: 5).
7 | network_0/router_level2_2 |   VC 0 at output 13 is in use by VC 0 at input 2 (front flit: 10).
7 | network_0/router_level2_2 |   Requesting VC 1 at output 13 (in_pri: 0, out_pri: 0).
7 | network_0/router_level2_2 |   Requesting VC 2 at output 13 (in_pri: 0, out_pri: 0).
7 | network_0/router_level2_2 |   Requesting VC 3 at output 13 (in_pri: 0, out_pri: 0).
7 | network_0/router_level2_2/vc_allocator | Input requests = [ 5 -> [ 53@0 54@0 55@0 ]  16 -> [ 53@0 54@0 55@0 ]  17 -> [ 37@0 38@0 39@0 ]  28 -> [ 48@0 49@0 50@0 51@0 ]  ], output requests = [ 37 -> [ 17@0 ]  38 -> [ 17@0 ]  39 -> [ 17@0 ]  48 -> [ 28@0 ]  49 -> [ 28@0 ]  50 -> [ 28@0 ]  51 -> [ 28@0 ]  53 -> [ 5@0 16@0 ]  54 -> [ 5@0 16@0 ]  55 -> [ 5@0 16@0 ]  ].
7 | network_0/router_level2_2/vc_allocator | Input grants = [ 5 -> 53  17 -> 37  28 -> 48  ], output grants = [ 37 -> 17  48 -> 28  53 -> 5  ].
7 | network_0/router_level2_2 | Assigning VC 1 at output 13 to VC 1 at input 1.
7 | network_0/router_level2_2 | Beginning switch allocation for VC 0 at input 1 (front: 1).
7 | network_0/router_level2_2 |   Requesting output 9.0 (non-spec, pri: 0).
7 | network_0/router_level2_2 | Beginning switch allocation for VC 0 at input 2 (front: 10).
7 | network_0/router_level2_2 |   Requesting output 13.0 (non-spec, pri: 0).
7 | network_0/router_level2_2/sw_allocator | Input requests = [ 1 -> [ 9@0 ]  2 -> [ 13@0 ]  ], output requests = [ 9 -> [ 1@0 ]  13 -> [ 2@0 ]  ].
7 | network_0/router_level2_2/sw_allocator | Input grants = [ 1 -> 9  2 -> 13  ], output grants = [ 9 -> 1  13 -> 2  ].
7 | network_0/router_level2_2 | Assigning output 9.0 to VC 0 at input 1.0.
7 | network_0/router_level2_2 | Assigning output 13.0 to VC 0 at input 2.0.
7 | network_0/router_level2_2 | Completed VC allocation for VC 1 at input 1 (front: 5).
7 | network_0/router_level2_2 |   Acquiring assigned VC 1 at output 13.
7 | network_0/router_level2_2/buf_1/vc_1 | Changing state from vc_alloc to active.
7 | network_0/router_level2_2 | Completed switch allocation for VC 0 at input 1 (front: 1).
7 | network_0/router_level2_2 |   Scheduling switch connection from input 1.0 to output 9.0.
7 | network_0/router_level2_2 | Updating lookahead routing information for flit 1.
7 | network_0/router_level2_2 | Completed switch allocation for VC 0 at input 2 (front: 10).
7 | network_0/router_level2_2 |   Scheduling switch connection from input 2.0 to output 13.0.
7 | network_0/router_level2_2 | Updating lookahead routing information for flit 10.
7 | network_0/router_level2_3 | Beginning switch allocation for VC 0 at input 1 (front: 3).
7 | network_0/router_level2_3 |   Requesting output 11.0 (non-spec, pri: 0).
7 | network_0/router_level2_3/sw_allocator | Input requests = [ 1 -> [ 11@0 ]  ], output requests = [ 11 -> [ 1@0 ]  ].
7 | network_0/router_level2_3/sw_allocator | Input grants = [ 1 -> 11  ], output grants = [ 11 -> 1  ].
7 | network_0/router_level2_3 | Assigning output 11.0 to VC 0 at input 1.0.
7 | network_0/router_level2_3 | Completed switch allocation for VC 0 at input 1 (front: 3).
7 | network_0/router_level2_3 |   Scheduling switch connection from input 1.0 to output 11.0.
7 | network_0/router_level2_3 | Updating lookahead routing information for flit 3.
7 | network_0/router_level2_4 | Beginning switch allocation for VC 0 at input 2 (front: 8).
7 | network_0/router_level2_4 |   Requesting output 15.0 (non-spec, pri: 0).
7 | network_0/router_level2_4/sw_allocator | Input requests = [ 2 -> [ 15@0 ]  3 -> [ 14@0 ]  6 -> [ 12@0 ]  ], output requests = [ 12 -> [ 6@0 ]  14 -> [ 3@0 ]  15 -> [ 2@0 ]  ].
7 | network_0/router_level2_4/sw_allocator | Input grants = [ 2 -> 15  3 -> 14  6 -> 12  ], output grants = [ 12 -> 6  14 -> 3  15 -> 2  ].
7 | network_0/router_level2_4 | Assigning output 15.0 to VC 0 at input 2.0.
7 | network_0/router_level2_4 | Completed switch allocation for VC 0 at input 2 (front: 8).
7 | network_0/router_level2_4 |   Scheduling switch connection from input 2.0 to output 15.0.
7 | network_0/router_level2_4 | Updating lookahead routing information for flit 8.
7 | network_0/router_level2_5 | Beginning switch allocation for VC 0 at input 1 (front: 4).
7 | network_0/router_level2_5 |   Requesting output 13.0 (non-spec, pri: 0).
7 | network_0/router_level2_5/sw_allocator | Input requests = [ 0 -> [ 15@0 ]  1 -> [ 13@0 ]  ], output requests = [ 13 -> [ 1@0 ]  15 -> [ 0@0 ]  ].
7 | network_0/router_level2_5/sw_allocator | Input grants = [ 0 -> 15  1 -> 13  ], output grants = [ 13 -> 1  15 -> 0  ].
7 | network_0/router_level2_5 | Assigning output 13.0 to VC 0 at input 1.0.
7 | network_0/router_level2_5 | Completed switch allocation for VC 0 at input 1 (front: 4).
7 | network_0/router_level2_5 |   Scheduling switch connection from input 1.0 to output 13.0.
7 | network_0/router_level2_5 | Updating lookahead routing information for flit 4.
7 | network_0/router_level2_7 | Beginning switch allocation for VC 0 at input 1 (front: 2).
7 | network_0/router_level2_7 |   Requesting output 8.0 (non-spec, pri: 0).
7 | network_0/router_level2_7/sw_allocator | Input requests = [ 1 -> [ 8@0 ]  5 -> [ 12@0 ]  ], output requests = [ 8 -> [ 1@0 ]  12 -> [ 5@0 ]  ].
7 | network_0/router_level2_7/sw_allocator | Input grants = [ 1 -> 8  5 -> 12  ], output grants = [ 8 -> 1  12 -> 5  ].
7 | network_0/router_level2_7 | Assigning output 8.0 to VC 0 at input 1.0.
7 | network_0/router_level2_7 | Completed switch allocation for VC 0 at input 1 (front: 2).
7 | network_0/router_level2_7 |   Scheduling switch connection from input 1.0 to output 8.0.
7 | network_0/router_level2_7 | Updating lookahead routing information for flit 2.
8 | network_0/router_level2_0 | Beginning crossbar traversal for flit 6 from input 1.0 to output 10.0.
8 | network_0/router_level2_0 | Completed crossbar traversal for flit 6 from input 1.0 to output 10.0.
8 | network_0/router_level2_0 | Buffering flit 6 at output 10.
8 | network_0/router_level2_1 | Beginning crossbar traversal for flit 7 from input 1.0 to output 15.0.
8 | network_0/router_level2_1 | Beginning crossbar traversal for flit 9 from input 2.0 to output 11.0.
8 | network_0/router_level2_1 | Completed crossbar traversal for flit 7 from input 1.0 to output 15.0.
8 | network_0/router_level2_1 | Buffering flit 7 at output 15.
8 | network_0/router_level2_1 | Completed crossbar traversal for flit 9 from input 2.0 to output 11.0.
8 | network_0/router_level2_1 | Buffering flit 9 at output 11.
8 | network_0/router_level2_2 | Beginning switch allocation for VC 1 at input 1 (front: 5).
8 | network_0/router_level2_2 |   Requesting output 13.0 (non-spec, pri: 0).
8 | network_0/router_level2_2/sw_allocator | Input requests = [ 1 -> [ 13@0 ]  4 -> [ 9@0 ]  7 -> [ 12@0 ]  ], output requests = [ 9 -> [ 4@0 ]  12 -> [ 7@0 ]  13 -> [ 1@0 ]  ].
8 | network_0/router_level2_2/sw_allocator | Input grants = [ 1 -> 13  4 -> 9  7 -> 12  ], output grants = [ 9 -> 4  12 -> 7  13 -> 1  ].
8 | network_0/router_level2_2 | Assigning output 13.0 to VC 1 at input 1.0.
8 | network_0/router_level2_2 | Beginning crossbar traversal for flit 1 from input 1.0 to output 9.0.
8 | network_0/router_level2_2 | Beginning crossbar traversal for flit 10 from input 2.0 to output 13.0.
8 | network_0/router_level2_2 | Completed switch allocation for VC 1 at input 1 (front: 5).
8 | network_0/router_level2_2 |   Scheduling switch connection from input 1.0 to output 13.0.
8 | network_0/router_level2_2 | Updating lookahead routing information for flit 5.
8 | network_0/router_level2_2 | Completed crossbar traversal for flit 1 from input 1.0 to output 9.0.
8 | network_0/router_level2_2 | Buffering flit 1 at output 9.
8 | network_0/router_level2_2 | Completed crossbar traversal for flit 10 from input 2.0 to output 13.0.
8 | network_0/router_level2_2 | Buffering flit 10 at output 13.
8 | network_0/router_level2_3 | Beginning crossbar traversal for flit 3 from input 1.0 to output 11.0.
8 | network_0/router_level2_3 | Completed crossbar traversal for flit 3 from input 1.0 to output 11.0.
8 | network_0/router_level2_3 | Buffering flit 3 at output 11.
8 | network_0/router_level2_4 | Beginning crossbar traversal for flit 8 from input 2.0 to output 15.0.
8 | network_0/router_level2_4 | Completed crossbar traversal for flit 8 from input 2.0 to output 15.0.
8 | network_0/router_level2_4 | Buffering flit 8 at output 15.
8 | network_0/router_level2_5 | Beginning crossbar traversal for flit 4 from input 1.0 to output 13.0.
8 | network_0/router_level2_5 | Completed crossbar traversal for flit 4 from input 1.0 to output 13.0.
8 | network_0/router_level2_5 | Buffering flit 4 at output 13.
8 | network_0/router_level2_7 | Beginning crossbar traversal for flit 2 from input 1.0 to output 8.0.
8 | network_0/router_level2_7 | Completed crossbar traversal for flit 2 from input 1.0 to output 8.0.
8 | network_0/router_level2_7 | Buffering flit 2 at output 8.
8 | network_0/router_level2_0 | Sending flit 6 to channel at output 10.
8 | network_0/router_level2_1 | Sending flit 9 to channel at output 11.
8 | network_0/router_level2_1 | Sending flit 7 to channel at output 15.
8 | network_0/router_level2_2 | Sending flit 1 to channel at output 9.
8 | network_0/router_level2_2 | Sending flit 10 to channel at output 13.
8 | network_0/router_level2_3 | Sending flit 3 to channel at output 11.
8 | network_0/router_level2_4 | Sending flit 8 to channel at output 15.
8 | network_0/router_level2_5 | Sending flit 4 to channel at output 13.
8 | network_0/router_level2_7 | Sending flit 2 to channel at output 8.
9 | network_0/network_0_fchan_12290 | Beginning channel traversal for flit 6 with delay 1.
9 | network_0/network_0_fchan_12299 | Beginning channel traversal for flit 9 with delay 1.
9 | network_0/network_0_fchan_12303 | Beginning channel traversal for flit 7 with delay 1.
9 | network_0/network_0_fchan_12305 | Beginning channel traversal for flit 1 with delay 1.
9 | network_0/network_0_fchan_12309 | Beginning channel traversal for flit 10 with delay 1.
9 | network_0/network_0_fchan_12315 | Beginning channel traversal for flit 3 with delay 1.
9 | network_0/network_0_fchan_12327 | Beginning channel traversal for flit 8 with delay 1.
9 | network_0/network_0_fchan_12333 | Beginning channel traversal for flit 4 with delay 1.
9 | network_0/network_0_fchan_12344 | Beginning channel traversal for flit 2 with delay 1.
9 | network_0/router_level2_2 | Beginning crossbar traversal for flit 5 from input 1.0 to output 13.0.
9 | network_0/router_level2_2 | Completed crossbar traversal for flit 5 from input 1.0 to output 13.0.
9 | network_0/router_level2_2 | Buffering flit 5 at output 13.
9 | network_0/network_0_fchan_12290 | Completed channel traversal for flit 6.
9 | network_0/network_0_fchan_12299 | Completed channel traversal for flit 9.
9 | network_0/network_0_fchan_12303 | Completed channel traversal for flit 7.
9 | network_0/network_0_fchan_12305 | Completed channel traversal for flit 1.
9 | network_0/network_0_fchan_12309 | Completed channel traversal for flit 10.
9 | network_0/network_0_fchan_12315 | Completed channel traversal for flit 3.
9 | network_0/network_0_fchan_12327 | Completed channel traversal for flit 8.
9 | network_0/network_0_fchan_12333 | Completed channel traversal for flit 4.
9 | network_0/network_0_fchan_12344 | Completed channel traversal for flit 2.
9 | network_0/router_level2_2 | Sending flit 5 to channel at output 13.
10 | network_0/network_0_fchan_12309 | Beginning channel traversal for flit 5 with delay 1.
10 | network_0/router_level1_7 | Received flit 2 from channel at input 0.
10 | network_0/router_level1_10 | Received flit 1 from channel at input 0.
10 | network_0/router_level1_16 | Received flit 6 from channel at input 0.
10 | network_0/router_level1_25 | Received flit 9 from channel at input 0.
10 | network_0/router_level1_27 | Received flit 3 from channel at input 0.
10 | network_0/router_level1_42 | Received flit 10 from channel at input 0.
10 | network_0/router_level1_45 | Received flit 4 from channel at input 0.
10 | network_0/router_level1_57 | Received flit 7 from channel at input 0.
10 | network_0/router_level1_60 | Received flit 8 from channel at input 0.
10 | network_0/router_level1_7 | Adding flit 2 to VC 0 at input 0 (state: idle, empty).
10 | network_0/router_level1_7 | Using precomputed lookahead routing information for VC 0 at input 0 (front: 2).
10 | network_0/router_level1_7/buf_0/vc_0 | Changing state from idle to vc_alloc.
10 | network_0/router_level1_7 | Beginning VC allocation for VC 0 at input 0 (front: 2).
10 | network_0/router_level1_7 |   Requesting VC 0 at output 8 (in_pri: 0, out_pri: 0).
10 | network_0/router_level1_7 |   Requesting VC 1 at output 8 (in_pri: 0, out_pri: 0).
10 | network_0/router_level1_7 |   Requesting VC 2 at output 8 (in_pri: 0, out_pri: 0).
10 | network_0/router_level1_7 |   Requesting VC 3 at output 8 (in_pri: 0, out_pri: 0).
10 | network_0/router_level1_7/vc_allocator | Input requests = [ 0 -> [ 32@0 33@0 34@0 35@0 ]  4 -> [ 36@0 37@0 38@0 39@0 ]  8 -> [ 36@0 37@0 38@0 39@0 ]  20 -> [ 36@0 37@0 38@0 39@0 ]  24 -> [ 36@0 37@0 38@0 39@0 ]  ], output requests = [ 32 -> [ 0@0 ]  33 -> [ 0@0 ]  34 -> [ 0@0 ]  35 -> [ 0@0 ]  36 -> [ 4@0 8@0 20@0 24@0 ]  37 -> [ 4@0 8@0 20@0 24@0 ]  38 -> [ 4@0 8@0 20@0 24@0 ]  39 -> [ 4@0 8@0 20@0 24@0 ]  ].
10 | network_0/router_level1_7/vc_allocator | Input grants = [ 0 -> 32  4 -> 36  ], output grants = [ 32 -> 0  36 -> 4  ].
10 | network_0/router_level1_7 | Assigning VC 0 at output 8 to VC 0 at input 0.
10 | network_0/router_level1_7 | Completed VC allocation for VC 0 at input 0 (front: 2).
10 | network_0/router_level1_7 |   Acquiring assigned VC 0 at output 8.
10 | network_0/router_level1_7/buf_0/vc_0 | Changing state from vc_alloc to active.
10 | network_0/router_level1_10 | Adding flit 1 to VC 0 at input 0 (state: idle, empty).
10 | network_0/router_level1_10 | Using precomputed lookahead routing information for VC 0 at input 0 (front: 1).
10 | network_0/router_level1_10/buf_0/vc_0 | Changing state from idle to vc_alloc.
10 | network_0/router_level1_10 | Beginning VC allocation for VC 0 at input 0 (front: 1).
10 | network_0/router_level1_10 |   Requesting VC 0 at output 8 (in_pri: 0, out_pri: 0).
10 | network_0/router_level1_10 |   Requesting VC 1 at output 8 (in_pri: 0, out_pri: 0).
10 | network_0/router_level1_10 |   Requesting VC 2 at output 8 (in_pri: 0, out_pri: 0).
10 | network_0/router_level1_10 |   Requesting VC 3 at output 8 (in_pri: 0, out_pri: 0).
10 | network_0/router_level1_10/vc_allocator | Input requests = [ 0 -> [ 32@0 33@0 34@0 35@0 ]  8 -> [ 32@0 33@0 34@0 35@0 ]  12 -> [ 36@0 37@0 38@0 39@0 ]  16 -> [ 32@0 33@0 34@0 35@0 ]  20 -> [ 32@0 33@0 34@0 35@0 ]  24 -> [ 32@0 33@0 34@0 35@0 ]  28 -> [ 32@0 33@0 34@0 35@0 ]  ], output requests = [ 32 -> [ 0@0 8@0 16@0 20@0 24@0 28@0 ]  33 -> [ 0@0 8@0 16@0 20@0 24@0 28@0 ]  34 -> [ 0@0 8@0 16@0 20@0 24@0 28@0 ]  35 -> [ 0@0 8@0 16@0 20@0 24@0 28@0 ]  36 -> [ 12@0 ]  37 -> [ 12@0 ]  38 -> [ 12@0 ]  39 -> [ 12@0 ]  ].
10 | network_0/router_level1_10/vc_allocator | Input grants = [ 0 -> 32  12 -> 36  ], output grants = [ 32 -> 0  36 -> 12  ].
10 | network_0/router_level1_10 | Assigning VC 0 at output 8 to VC 0 at input 0.
10 | network_0/router_level1_10 | Completed VC allocation for VC 0 at input 0 (front: 1).
10 | network_0/router_level1_10 |   Acquiring assigned VC 0 at output 8.
10 | network_0/router_level1_10/buf_0/vc_0 | Changing state from vc_alloc to active.
10 | network_0/router_level1_16 | Adding flit 6 to VC 0 at input 0 (state: idle, empty).
10 | network_0/router_level1_16 | Using precomputed lookahead routing information for VC 0 at input 0 (front: 6).
10 | network_0/router_level1_16/buf_0/vc_0 | Changing state from idle to vc_alloc.
10 | network_0/router_level1_16 | Beginning VC allocation for VC 0 at input 0 (front: 6).
10 | network_0/router_level1_16 |   Requesting VC 0 at output 9 (in_pri: 0, out_pri: 0).
10 | network_0/router_level1_16 |   Requesting VC 1 at output 9 (in_pri: 0, out_pri: 0).
10 | network_0/router_level1_16 |   Requesting VC 2 at output 9 (in_pri: 0, out_pri: 0).
10 | network_0/router_level1_16 |   Requesting VC 3 at output 9 (in_pri: 0, out_pri: 0).
10 | network_0/router_level1_16/vc_allocator | Input requests = [ 0 -> [ 36@0 37@0 38@0 39@0 ]  20 -> [ 32@0 33@0 34@0 35@0 ]  28 -> [ 32@0 33@0 34@0 35@0 ]  ], output requests = [ 32 -> [ 20@0 28@0 ]  33 -> [ 20@0 28@0 ]  34 -> [ 20@0 28@0 ]  35 -> [ 20@0 28@0 ]  36 -> [ 0@0 ]  37 -> [ 0@0 ]  38 -> [ 0@0 ]  39 -> [ 0@0 ]  ].
10 | network_0/router_level1_16/vc_allocator | Input grants = [ 0 -> 36  20 -> 32  ], output grants = [ 32 -> 20  36 -> 0  ].
10 | network_0/router_level1_16 | Assigning VC 0 at output 9 to VC 0 at input 0.
10 | network_0/router_level1_16 | Completed VC allocation for VC 0 at input 0 (front: 6).
10 | network_0/router_level1_16 |   Acquiring assigned VC 0 at output 9.
10 | network_0/router_level1_16/buf_0/vc_0 | Changing state from vc_alloc to active.
10 | network_0/router_level1_25 | Adding flit 9 to VC 0 at input 0 (state: idle, empty).
10 | network_0/router_level1_25 | Using precomputed lookahead routing information for VC 0 at input 0 (front: 9).
10 | network_0/router_level1_25/buf_0/vc_0 | Changing state from idle to vc_alloc.
10 | network_0/router_level1_25 | Beginning VC allocation for VC 0 at input 0 (front: 9).
10 | network_0/router_level1_25 |   Requesting VC 0 at output 8 (in_pri: 0, out_pri: 0).
10 | network_0/router_level1_25 |   Requesting VC 1 at output 8 (in_pri: 0, out_pri: 0).
10 | network_0/router_level1_25 |   Requesting VC 2 at output 8 (in_pri: 0, out_pri: 0).
10 | network_0/router_level1_25 |   Requesting VC 3 at output 8 (in_pri: 0, out_pri: 0).
10 | network_0/router_level1_25/vc_allocator | Input requests = [ 0 -> [ 32@0 33@0 34@0 35@0 ]  16 -> [ 36@0 37@0 38@0 39@0 ]  20 -> [ 32@0 33@0 34@0 35@0 ]  28 -> [ 32@0 33@0 34@0 35@0 ]  ], output requests = [ 32 -> [ 0@0 20@0 28@0 ]  33 -> [ 0@0 20@0 28@0 ]  34 -> [ 0@0 20@0 28@0 ]  35 -> [ 0@0 20@0 28@0 ]  36 -> [ 16@0 ]  37 -> [ 16@0 ]  38 -> [ 16@0 ]  39 -> [ 16@0 ]  ].
10 | network_0/router_level1_25/vc_allocator | Input grants = [ 0 -> 32  16 -> 36  ], output grants = [ 32 -> 0  36 -> 16  ].
10 | network_0/router_level1_25 | Assigning VC 0 at output 8 to VC 0 at input 0.
10 | network_0/router_level1_25 | Completed VC allocation for VC 0 at input 0 (front: 9).
10 | network_0/router_level1_25 |   Acquiring assigned VC 0 at output 8.
10 | network_0/router_level1_25/buf_0/vc_0 | Changing state from vc_alloc to active.
10 | network_0/router_level1_27 | Adding flit 3 to VC 0 at input 0 (state: idle, empty).
10 | network_0/router_level1_27 | Using precomputed lookahead routing information for VC 0 at input 0 (front: 3).
10 | network_0/router_level1_27/buf_0/vc_0 | Changing state from idle to vc_alloc.
10 | network_0/router_level1_27 | Beginning VC allocation for VC 0 at input 0 (front: 3).
10 | network_0/router_level1_27 |   Requesting VC 0 at output 9 (in_pri: 0, out_pri: 0).
10 | network_0/router_level1_27 |   Requesting VC 1 at output 9 (in_pri: 0, out_pri: 0).
10 | network_0/router_level1_27 |   Requesting VC 2 at output 9 (in_pri: 0, out_pri: 0).
10 | network_0/router_level1_27 |   Requesting VC 3 at output 9 (in_pri: 0, out_pri: 0).
10 | network_0/router_level1_27/vc_allocator | Input requests = [ 0 -> [ 36@0 37@0 38@0 39@0 ]  28 -> [ 36@0 37@0 38@0 39@0 ]  ], output requests = [ 36 -> [ 0@0 28@0 ]  37 -> [ 0@0 28@0 ]  38 -> [ 0@0 28@0 ]  39 -> [ 0@0 28@0 ]  ].
10 | network_0/router_level1_27/vc_allocator | Input grants = [ 0 -> 36  ], output grants = [ 36 -> 0  ].
10 | network_0/router_level1_27 | Assigning VC 0 at output 9 to VC 0 at input 0.
10 | network_0/router_level1_27 | Completed VC allocation for VC 0 at input 0 (front: 3).
10 | network_0/router_level1_27 |   Acquiring assigned VC 0 at output 9.
10 | network_0/router_level1_27/buf_0/vc_0 | Changing state from vc_alloc to active.
10 | network_0/router_level1_42 | Adding flit 10 to VC 0 at input 0 (state: idle, empty).
10 | network_0/router_level1_42 | Using precomputed lookahead routing information for VC 0 at input 0 (front: 10).
10 | network_0/router_level1_42/buf_0/vc_0 | Changing state from idle to vc_alloc.
10 | network_0/router_level1_42 | Beginning VC allocation for VC 0 at input 0 (front: 10).
10 | network_0/router_level1_42 |   Requesting VC 0 at output 8 (in_pri: 0, out_pri: 0).
10 | network_0/router_level1_42 |   Requesting VC 1 at output 8 (in_pri: 0, out_pri: 0).
10 | network_0/router_level1_42 |   Requesting VC 2 at output 8 (in_pri: 0, out_pri: 0).
10 | network_0/router_level1_42 |   Requesting VC 3 at output 8 (in_pri: 0, out_pri: 0).
10 | network_0/router_level1_42/vc_allocator | Input requests = [ 0 -> [ 32@0 33@0 34@0 35@0 ]  24 -> [ 36@0 37@0 38@0 39@0 ]  ], output requests = [ 32 -> [ 0@0 ]  33 -> [ 0@0 ]  34 -> [ 0@0 ]  35 -> [ 0@0 ]  36 -> [ 24@0 ]  37 -> [ 24@0 ]  38 -> [ 24@0 ]  39 -> [ 24@0 ]  ].
10 | network_0/router_level1_42/vc_allocator | Input grants = [ 0 -> 32  24 -> 36  ], output grants = [ 32 -> 0  36 -> 24  ].
10 | network_0/router_level1_42 | Assigning VC 0 at output 8 to VC 0 at input 0.
10 | network_0/router_level1_42 | Completed VC allocation for VC 0 at input 0 (front: 10).
10 | network_0/router_level1_42 |   Acquiring assigned VC 0 at output 8.
10 | network_0/router_level1_42/buf_0/vc_0 | Changing state from vc_alloc to active.
10 | network_0/router_level1_45 | Adding flit 4 to VC 0 at input 0 (state: idle, empty).
10 | network_0/router_level1_45 | Using precomputed lookahead routing information for VC 0 at input 0 (front: 4).
10 | network_0/router_level1_45/buf_0/vc_0 | Changing state from idle to vc_alloc.
10 | network_0/router_level1_45 | Beginning VC allocation for VC 0 at input 0 (front: 4).
10 | network_0/router_level1_45 |   Requesting VC 0 at output 9 (in_pri: 0, out_pri: 0).
10 | network_0/router_level1_45 |   Requesting VC 1 at output 9 (in_pri: 0, out_pri: 0).
10 | network_0/router_level1_45 |   Requesting VC 2 at output 9 (in_pri: 0, out_pri: 0).
10 | network_0/router_level1_45 |   Requesting VC 3 at output 9 (in_pri: 0, out_pri: 0).
10 | network_0/router_level1_45/vc_allocator | Input requests = [ 0 -> [ 36@0 37@0 38@0 39@0 ]  12 -> [ 32@0 33@0 34@0 35@0 ]  24 -> [ 36@0 37@0 38@0 39@0 ]  ], output requests = [ 32 -> [ 12@0 ]  33 -> [ 12@0 ]  34 -> [ 12@0 ]  35 -> [ 12@0 ]  36 -> [ 0@0 24@0 ]  37 -> [ 0@0 24@0 ]  38 -> [ 0@0 24@0 ]  39 -> [ 0@0 24@0 ]  ].
10 | network_0/router_level1_45/vc_allocator | Input grants = [ 0 -> 36  12 -> 32  ], output grants = [ 32 -> 12  36 -> 0  ].
10 | network_0/router_level1_45 | Assigning VC 0 at output 9 to VC 0 at input 0.
10 | network_0/router_level1_45 | Completed VC allocation for VC 0 at input 0 (front: 4).
10 | network_0/router_level1_45 |   Acquiring assigned VC 0 at output 9.
10 | network_0/router_level1_45/buf_0/vc_0 | Changing state from vc_alloc to active.
10 | network_0/router_level1_57 | Adding flit 7 to VC 0 at input 0 (state: idle, empty).
10 | network_0/router_level1_57 | Using precomputed lookahead routing information for VC 0 at input 0 (front: 7).
10 | network_0/router_level1_57/buf_0/vc_0 | Changing state from idle to vc_alloc.
10 | network_0/router_level1_57 | Beginning VC allocation for VC 0 at input 0 (front: 7).
10 | network_0/router_level1_57 |   Requesting VC 0 at output 9 (in_pri: 0, out_pri: 0).
10 | network_0/router_level1_57 |   Requesting VC 1 at output 9 (in_pri: 0, out_pri: 0).
10 | network_0/router_level1_57 |   Requesting VC 2 at output 9 (in_pri: 0, out_pri: 0).
10 | network_0/router_level1_57 |   Requesting VC 3 at output 9 (in_pri: 0, out_pri: 0).
10 | network_0/router_level1_57/vc_allocator | Input requests = [ 0 -> [ 36@0 37@0 38@0 39@0 ]  12 -> [ 32@0 33@0 34@0 35@0 ]  20 -> [ 36@0 37@0 38@0 39@0 ]  24 -> [ 36@0 37@0 38@0 39@0 ]  ], output requests = [ 32 -> [ 12@0 ]  33 -> [ 12@0 ]  34 -> [ 12@0 ]  35 -> [ 12@0 ]  36 -> [ 0@0 20@0 24@0 ]  37 -> [ 0@0 20@0 24@0 ]  38 -> [ 0@0 20@0 24@0 ]  39 -> [ 0@0 20@0 24@0 ]  ].
10 | network_0/router_level1_57/vc_allocator | Input grants = [ 0 -> 36  12 -> 32  ], output grants = [ 32 -> 12  36 -> 0  ].
10 | network_0/router_level1_57 | Assigning VC 0 at output 9 to VC 0 at input 0.
10 | network_0/router_level1_57 | Completed VC allocation for VC 0 at input 0 (front: 7).
10 | network_0/router_level1_57 |   Acquiring assigned VC 0 at output 9.
10 | network_0/router_level1_57/buf_0/vc_0 | Changing state from vc_alloc to active.
10 | network_0/router_level1_60 | Adding flit 8 to VC 0 at input 0 (state: idle, empty).
10 | network_0/router_level1_60 | Using precomputed lookahead routing information for VC 0 at input 0 (front: 8).
10 | network_0/router_level1_60/buf_0/vc_0 | Changing state from idle to vc_alloc.
10 | network_0/router_level1_60 | Beginning VC allocation for VC 0 at input 0 (front: 8).
10 | network_0/router_level1_60 |   Requesting VC 0 at output 8 (in_pri: 0, out_pri: 0).
10 | network_0/router_level1_60 |   Requesting VC 1 at output 8 (in_pri: 0, out_pri: 0).
10 | network_0/router_level1_60 |   Requesting VC 2 at output 8 (in_pri: 0, out_pri: 0).
10 | network_0/router_level1_60 |   Requesting VC 3 at output 8 (in_pri: 0, out_pri: 0).
10 | network_0/router_level1_60/vc_allocator | Input requests = [ 0 -> [ 32@0 33@0 34@0 35@0 ]  4 -> [ 36@0 37@0 38@0 39@0 ]  16 -> [ 32@0 33@0 34@0 35@0 ]  ], output requests = [ 32 -> [ 0@0 16@0 ]  33 -> [ 0@0 16@0 ]  34 -> [ 0@0 16@0 ]  35 -> [ 0@0 16@0 ]  36 -> [ 4@0 ]  37 -> [ 4@0 ]  38 -> [ 4@0 ]  39 -> [ 4@0 ]  ].
10 | network_0/router_level1_60/vc_allocator | Input grants = [ 0 -> 32  4 -> 36  ], output grants = [ 32 -> 0  36 -> 4  ].
10 | network_0/router_level1_60 | Assigning VC 0 at output 8 to VC 0 at input 0.
10 | network_0/router_level1_60 | Completed VC allocation for VC 0 at input 0 (front: 8).
10 | network_0/router_level1_60 |   Acquiring assigned VC 0 at output 8.
10 | network_0/router_level1_60/buf_0/vc_0 | Changing state from vc_alloc to active.
10 | network_0/network_0_fchan_12309 | Completed channel traversal for flit 5.
11 | network_0/router_level1_42 | Received flit 5 from channel at input 0.
11 | network_0/router_level1_7 | Beginning switch allocation for VC 0 at input 0 (front: 2).
11 | network_0/router_level1_7 |   Requesting output 8.0 (non-spec, pri: 0).
11 | network_0/router_level1_7/sw_allocator | Input requests = [ 0 -> [ 8@0 ]  1 -> [ 9@0 ]  ], output requests = [ 8 -> [ 0@0 ]  9 -> [ 1@0 ]  ].
11 | network_0/router_level1_7/sw_allocator | Input grants = [ 0 -> 8  1 -> 9  ], output grants = [ 8 -> 0  9 -> 1  ].
11 | network_0/router_level1_7 | Assigning output 8.0 to VC 0 at input 0.0.
11 | network_0/router_level1_7 | Completed switch allocation for VC 0 at input 0 (front: 2).
11 | network_0/router_level1_7 |   Scheduling switch connection from input 0.0 to output 8.0.
11 | network_0/router_level1_7 | Updating lookahead routing information for flit 2.
11 | network_0/router_level1_10 | Beginning switch allocation for VC 0 at input 0 (front: 1).
11 | network_0/router_level1_10 |   Requesting output 8.0 (non-spec, pri: 0).
11 | network_0/router_level1_10/sw_allocator | Input requests = [ 0 -> [ 8@0 ]  3 -> [ 9@0 ]  ], output requests = [ 8 -> [ 0@0 ]  9 -> [ 3@0 ]  ].
11 | network_0/router_level1_10/sw_allocator | Input grants = [ 0 -> 8  3 -> 9  ], output grants = [ 8 -> 0  9 -> 3  ].
11 | network_0/router_level1_10 | Assigning output 8.0 to VC 0 at input 0.0.
11 | network_0/router_level1_10 | Completed switch allocation for VC 0 at input 0 (front: 1).
11 | network_0/router_level1_10 |   Scheduling switch connection from input 0.0 to output 8.0.
11 | network_0/router_level1_10 | Updating lookahead routing information for flit 1.
11 | network_0/router_level1_16 | Beginning switch allocation for VC 0 at input 0 (front: 6).
11 | network_0/router_level1_16 |   Requesting output 9.0 (non-spec, pri: 0).
11 | network_0/router_level1_16/sw_allocator | Input requests = [ 0 -> [ 9@0 ]  5 -> [ 8@0 ]  ], output requests = [ 8 -> [ 5@0 ]  9 -> [ 0@0 ]  ].
11 | network_0/router_level1_16/sw_allocator | Input grants = [ 0 -> 9  5 -> 8  ], output grants = [ 8 -> 5  9 -> 0  ].
11 | network_0/router_level1_16 | Assigning output 9.0 to VC 0 at input 0.0.
11 | network_0/router_level1_16 | Completed switch allocation for VC 0 at input 0 (front: 6).
11 | network_0/router_level1_16 |   Scheduling switch connection from input 0.0 to output 9.0.
11 | network_0/router_level1_16 | Updating lookahead routing information for flit 6.
11 | network_0/router_level1_25 | Beginning switch allocation for VC 0 at input 0 (front: 9).
11 | network_0/router_level1_25 |   Requesting output 8.0 (non-spec, pri: 0).
11 | network_0/router_level1_25/sw_allocator | Input requests = [ 0 -> [ 8@0 ]  4 -> [ 9@0 ]  ], output requests = [ 8 -> [ 0@0 ]  9 -> [ 4@0 ]  ].
11 | network_0/router_level1_25/sw_allocator | Input grants = [ 0 -> 8  4 -> 9  ], output grants = [ 8 -> 0  9 -> 4  ].
11 | network_0/router_level1_25 | Assigning output 8.0 to VC 0 at input 0.0.
11 | network_0/router_level1_25 | Completed switch allocation for VC 0 at input 0 (front: 9).
11 | network_0/router_level1_25 |   Scheduling switch connection from input 0.0 to output 8.0.
11 | network_0/router_level1_25 | Updating lookahead routing information for flit 9.
11 | network_0/router_level1_27 | Beginning switch allocation for VC 0 at input 0 (front: 3).
11 | network_0/router_level1_27 |   Requesting output 9.0 (non-spec, pri: 0).
11 | network_0/router_level1_27/sw_allocator | Input requests = [ 0 -> [ 9@0 ]  ], output requests = [ 9 -> [ 0@0 ]  ].
11 | network_0/router_level1_27/sw_allocator | Input grants = [ 0 -> 9  ], output grants = [ 9 -> 0  ].
11 | network_0/router_level1_27 | Assigning output 9.0 to VC 0 at input 0.0.
11 | network_0/router_level1_27 | Completed switch allocation for VC 0 at input 0 (front: 3).
11 | network_0/router_level1_27 |   Scheduling switch connection from input 0.0 to output 9.0.
11 | network_0/router_level1_27 | Updating lookahead routing information for flit 3.
11 | network_0/router_level1_42 | Adding flit 5 to VC 1 at input 0 (state: idle, empty).
11 | network_0/router_level1_42 | Using precomputed lookahead routing information for VC 1 at input 0 (front: 5).
11 | network_0/router_level1_42/buf_0/vc_1 | Changing state from idle to vc_alloc.
11 | network_0/router_level1_42 | Beginning VC allocation for VC 1 at input 0 (front: 5).
11 | network_0/router_level1_42 |   VC 0 at output 8 is in use by VC 0 at input 0 (front flit: 10).
11 | network_0/router_level1_42 |   Requesting VC 1 at output 8 (in_pri: 0, out_pri: 0).
11 | network_0/router_level1_42 |   Requesting VC 2 at output 8 (in_pri: 0, out_pri: 0).
11 | network_0/router_level1_42 |   Requesting VC 3 at output 8 (in_pri: 0, out_pri: 0).
11 | network_0/router_level1_42/vc_allocator | Input requests = [ 1 -> [ 33@0 34@0 35@0 ]  25 -> [ 37@0 38@0 39@0 ]  ], output requests = [ 33 -> [ 1@0 ]  34 -> [ 1@0 ]  35 -> [ 1@0 ]  37 -> [ 25@0 ]  38 -> [ 25@0 ]  39 -> [ 25@0 ]  ].
11 | network_0/router_level1_42/vc_allocator | Input grants = [ 1 -> 33  25 -> 37  ], output grants = [ 33 -> 1  37 -> 25  ].
11 | network_0/router_level1_42 | Assigning VC 1 at output 8 to VC 1 at input 0.
11 | network_0/router_level1_42 | Beginning switch allocation for VC 0 at input 0 (front: 10).
11 | network_0/router_level1_42 |   Requesting output 8.0 (non-spec, pri: 0).
[...]
26 | network_0/router_level3_510 | Assigning VC 0 at output 7 to VC 0 at input 10.
26 | network_0/router_level3_510 | Assigning VC 0 at output 4 to VC 0 at input 11.
26 | network_0/router_level3_510 | Assigning VC 0 at output 3 to VC 0 at input 13.
26 | network_0/router_level3_510 | Assigning VC 0 at output 6 to VC 0 at input 15.
26 | network_0/router_level3_510 | Completed VC allocation for VC 0 at input 8 (front: 6).
26 | network_0/router_level3_510 |   Acquiring assigned VC 0 at output 1.
26 | network_0/router_level3_510/buf_8/vc_0 | Changing state from vc_alloc to active.
26 | network_0/router_level3_510 | Completed VC allocation for VC 0 at input 9 (front: 7).
26 | network_0/router_level3_510 |   Acquiring assigned VC 0 at output 0.
26 | network_0/router_level3_510/buf_9/vc_0 | Changing state from vc_alloc to active.
26 | network_0/router_level3_510 | Completed VC allocation for VC 0 at input 10 (front: 1).
26 | network_0/router_level3_510 |   Acquiring assigned VC 0 at output 7.
26 | network_0/router_level3_510/buf_10/vc_0 | Changing state from vc_alloc to active.
26 | network_0/router_level3_510 | Completed VC allocation for VC 0 at input 11 (front: 3).
26 | network_0/router_level3_510 |   Acquiring assigned VC 0 at output 4.
26 | network_0/router_level3_510/buf_11/vc_0 | Changing state from vc_alloc to active.
26 | network_0/router_level3_510 | Completed VC allocation for VC 0 at input 13 (front: 4).
26 | network_0/router_level3_510 |   Acquiring assigned VC 0 at output 3.
26 | network_0/router_level3_510/buf_13/vc_0 | Changing state from vc_alloc to active.
26 | network_0/router_level3_510 | Completed VC allocation for VC 0 at input 15 (front: 2).
26 | network_0/router_level3_510 |   Acquiring assigned VC 0 at output 6.
26 | network_0/router_level3_510/buf_15/vc_0 | Changing state from vc_alloc to active.
26 | network_0/network_0_fchan_20438 | Completed channel traversal for flit 5.
27 | network_0/router_level3_510 | Received flit 5 from channel at input 10.
27 | network_0/router_level3_509 | Beginning switch allocation for VC 0 at input 9 (front: 9).
27 | network_0/router_level3_509 |   Requesting output 4.0 (non-spec, pri: 0).
27 | network_0/router_level3_509 | Beginning switch allocation for VC 0 at input 10 (front: 10).
27 | network_0/router_level3_509 |   Requesting output 3.0 (non-spec, pri: 0).
27 | network_0/router_level3_509 | Beginning switch allocation for VC 0 at input 12 (front: 8).
27 | network_0/router_level3_509 |   Requesting output 5.0 (non-spec, pri: 0).
27 | network_0/router_level3_509/sw_allocator | Input requests = [ 3 -> [ 8@0 ]  7 -> [ 9@0 ]  9 -> [ 4@0 ]  10 -> [ 3@0 ]  12 -> [ 5@0 ]  ], output requests = [ 3 -> [ 10@0 ]  4 -> [ 9@0 ]  5 -> [ 12@0 ]  8 -> [ 3@0 ]  9 -> [ 7@0 ]  ].
27 | network_0/router_level3_509/sw_allocator | Input grants = [ 3 -> 8  7 -> 9  9 -> 4  10 -> 3  12 -> 5  ], output grants = [ 3 -> 10  4 -> 9  5 -> 12  8 -> 3  9 -> 7  ].
27 | network_0/router_level3_509 | Assigning output 4.0 to VC 0 at input 9.0.
27 | network_0/router_level3_509 | Assigning output 3.0 to VC 0 at input 10.0.
27 | network_0/router_level3_509 | Assigning output 5.0 to VC 0 at input 12.0.
27 | network_0/router_level3_509 | Completed switch allocation for VC 0 at input 9 (front: 9).
27 | network_0/router_level3_509 |   Scheduling switch connection from input 9.0 to output 4.0.
27 | network_0/router_level3_509 | Completed switch allocation for VC 0 at input 10 (front: 10).
27 | network_0/router_level3_509 |   Scheduling switch connection from input 10.0 to output 3.0.
27 | network_0/router_level3_509 | Completed switch allocation for VC 0 at input 12 (front: 8).
27 | network_0/router_level3_509 |   Scheduling switch connection from input 12.0 to output 5.0.
27 | network_0/router_level3_510 | Adding flit 5 to VC 1 at input 10 (state: idle, empty).
27 | network_0/router_level3_510 | Using precomputed lookahead routing information for VC 1 at input 10 (front: 5).
27 | network_0/router_level3_510/buf_10/vc_1 | Changing state from idle to vc_alloc.
27 | network_0/router_level3_510 | Beginning VC allocation for VC 1 at input 10 (front: 5).
27 | network_0/router_level3_510 |   Requesting VC 0 at output 2 (in_pri: 0, out_pri: 0).
27 | network_0/router_level3_510 |   Requesting VC 1 at output 2 (in_pri: 0, out_pri: 0).
27 | network_0/router_level3_510 |   Requesting VC 2 at output 2 (in_pri: 0, out_pri: 0).
27 | network_0/router_level3_510 |   Requesting VC 3 at output 2 (in_pri: 0, out_pri: 0).
27 | network_0/router_level3_510/vc_allocator | Input requests = [ 5 -> [ 40@0 41@0 42@0 43@0 ]  10 -> [ 40@0 41@0 42@0 43@0 ]  23 -> [ 40@0 41@0 42@0 43@0 ]  31 -> [ 37@0 39@0 ]  33 -> [ 13@0 14@0 15@0 ]  37 -> [ 25@0 26@0 27@0 ]  41 -> [ 8@0 9@0 10@0 11@0 ]  61 -> [ 5@0 6@0 7@0 ]  ], output requests = [ 5 -> [ 61@0 ]  6 -> [ 61@0 ]  7 -> [ 61@0 ]  8 -> [ 41@0 ]  9 -> [ 41@0 ]  10 -> [ 41@0 ]  11 -> [ 41@0 ]  13 -> [ 33@0 ]  14 -> [ 33@0 ]  15 -> [ 33@0 ]  25 -> [ 37@0 ]  26 -> [ 37@0 ]  27 -> [ 37@0 ]  37 -> [ 31@0 ]  39 -> [ 31@0 ]  40 -> [ 5@0 10@0 23@0 ]  41 -> [ 5@0 10@0 23@0 ]  42 -> [ 5@0 10@0 23@0 ]  43 -> [ 5@0 10@0 23@0 ]  ].
27 | network_0/router_level3_510/vc_allocator | Input grants = [ 5 -> 40  31 -> 37  33 -> 13  37 -> 25  41 -> 8  61 -> 5  ], output grants = [ 5 -> 61  8 -> 41  13 -> 33  25 -> 37  37 -> 31  40 -> 5  ].
27 | network_0/router_level3_510 | Assigning VC 0 at output 2 to VC 1 at input 10.
27 | network_0/router_level3_510 | Beginning switch allocation for VC 0 at input 8 (front: 6).
27 | network_0/router_level3_510 |   Requesting output 1.0 (non-spec, pri: 0).
27 | network_0/router_level3_510 | Beginning switch allocation for VC 0 at input 9 (front: 7).
27 | network_0/router_level3_510 |   Requesting output 0.0 (non-spec, pri: 0).
27 | network_0/router_level3_510 | Beginning switch allocation for VC 0 at input 10 (front: 1).
27 | network_0/router_level3_510 |   Requesting output 7.0 (non-spec, pri: 0).
27 | network_0/router_level3_510 | Beginning switch allocation for VC 0 at input 11 (front: 3).
27 | network_0/router_level3_510 |   Requesting output 4.0 (non-spec, pri: 0).
27 | network_0/router_level3_510 | Beginning switch allocation for VC 0 at input 13 (front: 4).
27 | network_0/router_level3_510 |   Requesting output 3.0 (non-spec, pri: 0).
27 | network_0/router_level3_510 | Beginning switch allocation for VC 0 at input 15 (front: 2).
27 | network_0/router_level3_510 |   Requesting output 6.0 (non-spec, pri: 0).
27 | network_0/router_level3_510/sw_allocator | Input requests = [ 1 -> [ 9@0 ]  5 -> [ 9@0 ]  7 -> [ 15@0 ]  8 -> [ 1@0 ]  9 -> [ 0@0 ]  10 -> [ 7@0 ]  11 -> [ 4@0 ]  13 -> [ 3@0 ]  15 -> [ 6@0 ]  ], output requests = [ 0 -> [ 9@0 ]  1 -> [ 8@0 ]  3 -> [ 13@0 ]  4 -> [ 11@0 ]  6 -> [ 15@0 ]  7 -> [ 10@0 ]  9 -> [ 1@0 5@0 ]  15 -> [ 7@0 ]  ].
27 | network_0/router_level3_510/sw_allocator | Input grants = [ 5 -> 9  7 -> 15  8 -> 1  9 -> 0  10 -> 7  11 -> 4  13 -> 3  15 -> 6  ], output grants = [ 0 -> 9  1 -> 8  3 -> 13  4 -> 11  6 -> 15  7 -> 10  9 -> 5  15 -> 7  ].
27 | network_0/router_level3_510 | Assigning output 1.0 to VC 0 at input 8.0.
27 | network_0/router_level3_510 | Assigning output 0.0 to VC 0 at input 9.0.
27 | network_0/router_level3_510 | Assigning output 7.0 to VC 0 at input 10.0.
27 | network_0/router_level3_510 | Assigning output 4.0 to VC 0 at input 11.0.
27 | network_0/router_level3_510 | Assigning output 3.0 to VC 0 at input 13.0.
27 | network_0/router_level3_510 | Assigning output 6.0 to VC 0 at input 15.0.
27 | network_0/router_level3_510 | Completed VC allocation for VC 1 at input 10 (front: 5).
27 | network_0/router_level3_510 |   Acquiring assigned VC 0 at output 2.
27 | network_0/router_level3_510/buf_10/vc_1 | Changing state from vc_alloc to active.
27 | network_0/router_level3_510 | Completed switch allocation for VC 0 at input 8 (front: 6).
27 | network_0/router_level3_510 |   Scheduling switch connection from input 8.0 to output 1.0.
27 | network_0/router_level3_510 | Completed switch allocation for VC 0 at input 9 (front: 7).
27 | network_0/router_level3_510 |   Scheduling switch connection from input 9.0 to output 0.0.
27 | network_0/router_level3_510 | Completed switch allocation for VC 0 at input 10 (front: 1).
27 | network_0/router_level3_510 |   Scheduling switch connection from input 10.0 to output 7.0.
27 | network_0/router_level3_510 | Completed switch allocation for VC 0 at input 11 (front: 3).
27 | network_0/router_level3_510 |   Scheduling switch connection from input 11.0 to output 4.0.
27 | network_0/router_level3_510 | Completed switch allocation for VC 0 at input 13 (front: 4).
27 | network_0/router_level3_510 |   Scheduling switch connection from input 13.0 to output 3.0.
27 | network_0/router_level3_510 | Completed switch allocation for VC 0 at input 15 (front: 2).
27 | network_0/router_level3_510 |   Scheduling switch connection from input 15.0 to output 6.0.
28 | network_0/router_level3_509 | Beginning crossbar traversal for flit 9 from input 9.0 to output 4.0.
28 | network_0/router_level3_509 | Beginning crossbar traversal for flit 10 from input 10.0 to output 3.0.
28 | network_0/router_level3_509 | Beginning crossbar traversal for flit 8 from input 12.0 to output 5.0.
28 | network_0/router_level3_509 | Completed crossbar traversal for flit 9 from input 9.0 to output 4.0.
28 | network_0/router_level3_509 | Buffering flit 9 at output 4.
28 | network_0/router_level3_509 | Completed crossbar traversal for flit 10 from input 10.0 to output 3.0.
28 | network_0/router_level3_509 | Buffering flit 10 at output 3.
28 | network_0/router_level3_509 | Completed crossbar traversal for flit 8 from input 12.0 to output 5.0.
28 | network_0/router_level3_509 | Buffering flit 8 at output 5.
28 | network_0/router_level3_510 | Beginning switch allocation for VC 1 at input 10 (front: 5).
28 | network_0/router_level3_510 |   Requesting output 2.0 (non-spec, pri: 0).
28 | network_0/router_level3_510/sw_allocator | Input requests = [ 1 -> [ 9@0 10@0 ]  7 -> [ 9@0 ]  8 -> [ 3@0 ]  9 -> [ 6@0 ]  10 -> [ 2@0 ]  15 -> [ 1@0 ]  ], output requests = [ 1 -> [ 15@0 ]  2 -> [ 10@0 ]  3 -> [ 8@0 ]  6 -> [ 9@0 ]  9 -> [ 1@0 7@0 ]  10 -> [ 1@0 ]  ].
28 | network_0/router_level3_510/sw_allocator | Input grants = [ 7 -> 9  8 -> 3  9 -> 6  10 -> 2  15 -> 1  ], output grants = [ 1 -> 15  2 -> 10  3 -> 8  6 -> 9  9 -> 7  ].
28 | network_0/router_level3_510 | Assigning output 2.0 to VC 1 at input 10.0.
28 | network_0/router_level3_510 | Beginning crossbar traversal for flit 6 from input 8.0 to output 1.0.
28 | network_0/router_level3_510 | Beginning crossbar traversal for flit 7 from input 9.0 to output 0.0.
28 | network_0/router_level3_510 | Beginning crossbar traversal for flit 1 from input 10.0 to output 7.0.
28 | network_0/router_level3_510 | Beginning crossbar traversal for flit 3 from input 11.0 to output 4.0.
28 | network_0/router_level3_510 | Beginning crossbar traversal for flit 4 from input 13.0 to output 3.0.
28 | network_0/router_level3_510 | Beginning crossbar traversal for flit 2 from input 15.0 to output 6.0.
28 | network_0/router_level3_510 | Completed switch allocation for VC 1 at input 10 (front: 5).
28 | network_0/router_level3_510 |   Scheduling switch connection from input 10.0 to output 2.0.
28 | network_0/router_level3_510 | Completed crossbar traversal for flit 6 from input 8.0 to output 1.0.
28 | network_0/router_level3_510 | Buffering flit 6 at output 1.
28 | network_0/router_level3_510 | Completed crossbar traversal for flit 7 from input 9.0 to output 0.0.
28 | network_0/router_level3_510 | Buffering flit 7 at output 0.
28 | network_0/router_level3_510 | Completed crossbar traversal for flit 1 from input 10.0 to output 7.0.
28 | network_0/router_level3_510 | Buffering flit 1 at output 7.
28 | network_0/router_level3_510 | Completed crossbar traversal for flit 3 from input 11.0 to output 4.0.
28 | network_0/router_level3_510 | Buffering flit 3 at output 4.
28 | network_0/router_level3_510 | Completed crossbar traversal for flit 4 from input 13.0 to output 3.0.
28 | network_0/router_level3_510 | Buffering flit 4 at output 3.
28 | network_0/router_level3_510 | Completed crossbar traversal for flit 2 from input 15.0 to output 6.0.
28 | network_0/router_level3_510 | Buffering flit 2 at output 6.
28 | network_0/router_level3_509 | Sending flit 10 to channel at output 3.
28 | network_0/router_level3_509 | Sending flit 9 to channel at output 4.
28 | network_0/router_level3_509 | Sending flit 8 to channel at output 5.
28 | network_0/router_level3_510 | Sending flit 7 to channel at output 0.
28 | network_0/router_level3_510 | Sending flit 6 to channel at output 1.
28 | network_0/router_level3_510 | Sending flit 4 to channel at output 3.
28 | network_0/router_level3_510 | Sending flit 3 to channel at output 4.
28 | network_0/router_level3_510 | Sending flit 2 to channel at output 6.
28 | network_0/router_level3_510 | Sending flit 1 to channel at output 7.
29 | network_0/network_0_fchan_egress4075 | Beginning channel traversal for flit 10 with delay 1.
29 | network_0/network_0_fchan_egress4076 | Beginning channel traversal for flit 9 with delay 1.
29 | network_0/network_0_fchan_egress4077 | Beginning channel traversal for flit 8 with delay 1.
29 | network_0/network_0_fchan_egress4080 | Beginning channel traversal for flit 7 with delay 1.
29 | network_0/network_0_fchan_egress4081 | Beginning channel traversal for flit 6 with delay 1.
29 | network_0/network_0_fchan_egress4083 | Beginning channel traversal for flit 4 with delay 1.
29 | network_0/network_0_fchan_egress4084 | Beginning channel traversal for flit 3 with delay 1.
29 | network_0/network_0_fchan_egress4086 | Beginning channel traversal for flit 2 with delay 1.
29 | network_0/network_0_fchan_egress4087 | Beginning channel traversal for flit 1 with delay 1.
29 | network_0/router_level3_510 | Beginning crossbar traversal for flit 5 from input 10.0 to output 2.0.
29 | network_0/router_level3_510 | Completed crossbar traversal for flit 5 from input 10.0 to output 2.0.
29 | network_0/router_level3_510 | Buffering flit 5 at output 2.
29 | network_0/network_0_fchan_egress4075 | Completed channel traversal for flit 10.
29 | network_0/network_0_fchan_egress4076 | Completed channel traversal for flit 9.
29 | network_0/network_0_fchan_egress4077 | Completed channel traversal for flit 8.
29 | network_0/network_0_fchan_egress4080 | Completed channel traversal for flit 7.
29 | network_0/network_0_fchan_egress4081 | Completed channel traversal for flit 6.
29 | network_0/network_0_fchan_egress4083 | Completed channel traversal for flit 4.
29 | network_0/network_0_fchan_egress4084 | Completed channel traversal for flit 3.
29 | network_0/network_0_fchan_egress4086 | Completed channel traversal for flit 2.
29 | network_0/network_0_fchan_egress4087 | Completed channel traversal for flit 1.
29 | network_0/router_level3_510 | Sending flit 5 to channel at output 2.
30 | node4075 | Ejecting flit 10 (packet 10) from VC 0.
30 | node4076 | Ejecting flit 9 (packet 9) from VC 0.
30 | node4077 | Ejecting flit 8 (packet 8) from VC 0.
30 | node4080 | Ejecting flit 7 (packet 7) from VC 0.
30 | node4081 | Ejecting flit 6 (packet 6) from VC 0.
30 | node4083 | Ejecting flit 4 (packet 4) from VC 0.
30 | node4084 | Ejecting flit 3 (packet 3) from VC 0.
30 | node4086 | Ejecting flit 2 (packet 2) from VC 0.
30 | node4087 | Ejecting flit 1 (packet 1) from VC 0.
30 | network_0/network_0_fchan_egress4082 | Beginning channel traversal for flit 5 with delay 1.
30 | node4075 | Injecting credit for VC 0 into subnet 0.
30 | node4075 | Retiring flit 10 (packet 10, src = 20, dest = 4075, hops = 7, flat = 30).
30 | node4075 | Retiring packet 10 (plat = 30, nlat = 30, frag = 0, src = 20, dest = 4075).
30 | node4076 | Injecting credit for VC 0 into subnet 0.
30 | node4076 | Retiring flit 9 (packet 9, src = 19, dest = 4076, hops = 7, flat = 30).
30 | node4076 | Retiring packet 9 (plat = 30, nlat = 30, frag = 0, src = 19, dest = 4076).
30 | node4077 | Injecting credit for VC 0 into subnet 0.
30 | node4077 | Retiring flit 8 (packet 8, src = 18, dest = 4077, hops = 7, flat = 30).
30 | node4077 | Retiring packet 8 (plat = 30, nlat = 30, frag = 0, src = 18, dest = 4077).
30 | node4080 | Injecting credit for VC 0 into subnet 0.
30 | node4080 | Retiring flit 7 (packet 7, src = 15, dest = 4080, hops = 7, flat = 30).
30 | node4080 | Retiring packet 7 (plat = 30, nlat = 30, frag = 0, src = 15, dest = 4080).
30 | node4081 | Injecting credit for VC 0 into subnet 0.
30 | node4081 | Retiring flit 6 (packet 6, src = 14, dest = 4081, hops = 7, flat = 30).
30 | node4081 | Retiring packet 6 (plat = 30, nlat = 30, frag = 0, src = 14, dest = 4081).
30 | node4083 | Injecting credit for VC 0 into subnet 0.
30 | node4083 | Retiring flit 4 (packet 4, src = 12, dest = 4083, hops = 7, flat = 30).
30 | node4083 | Retiring packet 4 (plat = 30, nlat = 30, frag = 0, src = 12, dest = 4083).
30 | node4084 | Injecting credit for VC 0 into subnet 0.
30 | node4084 | Retiring flit 3 (packet 3, src = 11, dest = 4084, hops = 7, flat = 30).
30 | node4084 | Retiring packet 3 (plat = 30, nlat = 30, frag = 0, src = 11, dest = 4084).
30 | node4086 | Injecting credit for VC 0 into subnet 0.
30 | node4086 | Retiring flit 2 (packet 2, src = 9, dest = 4086, hops = 7, flat = 30).
30 | node4086 | Retiring packet 2 (plat = 30, nlat = 30, frag = 0, src = 9, dest = 4086).
30 | node4087 | Injecting credit for VC 0 into subnet 0.
30 | node4087 | Retiring flit 1 (packet 1, src = 8, dest = 4087, hops = 7, flat = 30).
30 | node4087 | Retiring packet 1 (plat = 30, nlat = 30, frag = 0, src = 8, dest = 4087).
30 | network_0/network_0_fchan_egress4082 | Completed channel traversal for flit 5.
31 | node4082 | Ejecting flit 5 (packet 5) from VC 0.
31 | node4082 | Injecting credit for VC 0 into subnet 0.
31 | node4082 | Retiring flit 5 (packet 5, src = 13, dest = 4082, hops = 7, flat = 31).
31 | node4082 | Retiring packet 5 (plat = 31, nlat = 31, frag = 0, src = 13, dest = 4082).
Class 0:
Packet latency average = 247.61
	minimum = 30
	maximum = 741
Network latency average = 247.606
	minimum = 30
	maximum = 741
Slowest packet = 416631
Flit latency average = 247.606
	minimum = 30
	maximum = 741
Slowest flit = 416631
Fragmentation average = 0
	minimum = 0
	maximum = 0
Injected packet rate average = 0.401779
	minimum = 0.291 (at node 3189)
	maximum = 0.473 (at node 2118)
Accepted packet rate average = 0.23495
	minimum = 0.186 (at node 2453)
	maximum = 0.283 (at node 1977)
Injected flit rate average = 0.401779
	minimum = 0.291 (at node 3189)
	maximum = 0.473 (at node 2118)
Accepted flit rate average= 0.23495
	minimum = 0.186 (at node 2453)
	maximum = 0.283 (at node 1977)
Injected packet length average = 1
Accepted packet length average = 1
Total in-flight flits = 686467 (0 measured)
latency change    = 1
throughput change = 1
Class 0:
Packet latency average = 477.625
	minimum = 30
	maximum = 1464
Network latency average = 438.823
	minimum = 30
	maximum = 1464
Slowest packet = 935758
Flit latency average = 438.823
	minimum = 30
	maximum = 1464
Slowest flit = 935758
Fragmentation average = 0
	minimum = 0
	maximum = 0
Injected packet rate average = 0.317497
	minimum = 0.2475 (at node 3323)
	maximum = 0.3815 (at node 84)
Accepted packet rate average = 0.238467
	minimum = 0.183 (at node 772)
	maximum = 0.301 (at node 1627)
Injected flit rate average = 0.317497
	minimum = 0.2475 (at node 3323)
	maximum = 0.3815 (at node 84)
Accepted flit rate average= 0.238467
	minimum = 0.183 (at node 772)
	maximum = 0.301 (at node 1627)
Injected packet length average = 1
Accepted packet length average = 1
Total in-flight flits = 650532 (0 measured)
latency change    = 0.481582
throughput change = 0.0147462
Average latency for class 0 exceeded 500 cycles. Aborting simulation.
Too many sample periods needed to converge
Simulation unstable, ending ...
Total run time 270.676
