BEGIN Configuration File: examples/fattree_config_0.80_1_transpose
// $Id: dragonflyconfig 3555 2011-05-16 23:37:55Z dub $

// Copyright (c) 2007-2015, Trustees of The Leland Stanford Junior University
// All rights reserved.
//
// Redistribution and use in source and binary forms, with or without
// modification, are permitted provided that the following conditions are met:
//
// Redistributions of source code must retain the above copyright notice, this
// list of conditions and the following disclaimer.
// Redistributions in binary form must reproduce the above copyright notice,
// this list of conditions and the following disclaimer in the documentation
// and/or other materials provided with the distribution.
//
// THIS SOFTWARE IS PROVIDED BY THE COPYRIGHT HOLDERS AND CONTRIBUTORS "AS IS"
// AND ANY EXPRESS OR IMPLIED WARRANTIES, INCLUDING, BUT NOT LIMITED TO, THE
// IMPLIED WARRANTIES OF MERCHANTABILITY AND FITNESS FOR A PARTICULAR PURPOSE
// ARE DISCLAIMED. IN NO EVENT SHALL THE COPYRIGHT OWNER OR CONTRIBUTORS BE
// LIABLE FOR ANY DIRECT, INDIRECT, INCIDENTAL, SPECIAL, EXEMPLARY, OR
// CONSEQUENTIAL DAMAGES (INCLUDING, BUT NOT LIMITED TO, PROCUREMENT OF
// SUBSTITUTE GOODS OR SERVICES; LOSS OF USE, DATA, OR PROFITS; OR BUSINESS
// INTERRUPTION) HOWEVER CAUSED AND ON ANY THEORY OF LIABILITY, WHETHER IN
// CONTRACT, STRICT LIABILITY, OR TORT (INCLUDING NEGLIGENCE OR OTHERWISE)
// ARISING IN ANY WAY OUT OF THE USE OF THIS SOFTWARE, EVEN IF ADVISED OF THE
// POSSIBILITY OF SUCH DAMAGE.


hold_switch_for_packet=1;

vc_buf_size = 16;


wait_for_tail_credit = 0;

//
// Router architecture
//
vc_allocator = separable_input_first; 
sw_allocator = separable_input_first;
alloc_iters  = 1;

credit_delay   = 2;
routing_delay  = 0;
vc_alloc_delay = 1;
sw_alloc_delay = 1;
st_final_delay = 1;

input_speedup     = 1;
output_speedup    = 1;
internal_speedup  = 1.0;


warmup_periods = 3;
sim_count          = 1;

sample_period  = 1000;  

routing_function = nca;
num_vcs     = 4;

priority = none;
traffic = transpose;


injection_rate = 0.80;
packet_size = 1;
injection_rate_uses_flits=1;

topology = fattree;

k  = 8;
n  = 4;
t = 1;

watch_file = watchfile.txt;
watch_out=-;
stats_out = examples/fattree_config_0.80_1_transpose.m;

END Configuration File: examples/fattree_config_0.80_1_transpose
Fat Tree
 k = 8 levels = 4
 each switch - total radix =  16
 # of switches = 2048
 # of channels = 24576
 # of nodes ( size of network ) = 4096
 tapering factor = 1
0 | node1 | Enqueuing flit 1 (packet 1) at time 0.
0 | node2 | Enqueuing flit 2 (packet 2) at time 0.
0 | node3 | Enqueuing flit 3 (packet 3) at time 0.
0 | node4 | Enqueuing flit 4 (packet 4) at time 0.
0 | node5 | Enqueuing flit 5 (packet 5) at time 0.
0 | node8 | Enqueuing flit 6 (packet 6) at time 0.
0 | node9 | Enqueuing flit 7 (packet 7) at time 0.
0 | node10 | Enqueuing flit 8 (packet 8) at time 0.
0 | node11 | Enqueuing flit 9 (packet 9) at time 0.
0 | node12 | Enqueuing flit 10 (packet 10) at time 0.
0 | traffic_manager | Finding output VC for flit 1:
0 | traffic_manager |   Selected output VC 0.
0 | node1 | Generating lookahead routing info for flit 1.
0 | node1 | Injecting flit 1 into subnet 0 at time 0 with priority 0.
0 | traffic_manager | Finding output VC for flit 2:
0 | traffic_manager |   Selected output VC 0.
0 | node2 | Generating lookahead routing info for flit 2.
0 | node2 | Injecting flit 2 into subnet 0 at time 0 with priority 0.
0 | traffic_manager | Finding output VC for flit 3:
0 | traffic_manager |   Selected output VC 0.
0 | node3 | Generating lookahead routing info for flit 3.
0 | node3 | Injecting flit 3 into subnet 0 at time 0 with priority 0.
0 | traffic_manager | Finding output VC for flit 4:
0 | traffic_manager |   Selected output VC 0.
0 | node4 | Generating lookahead routing info for flit 4.
0 | node4 | Injecting flit 4 into subnet 0 at time 0 with priority 0.
0 | traffic_manager | Finding output VC for flit 5:
0 | traffic_manager |   Selected output VC 0.
0 | node5 | Generating lookahead routing info for flit 5.
0 | node5 | Injecting flit 5 into subnet 0 at time 0 with priority 0.
0 | traffic_manager | Finding output VC for flit 6:
0 | traffic_manager |   Selected output VC 0.
0 | node8 | Generating lookahead routing info for flit 6.
0 | node8 | Injecting flit 6 into subnet 0 at time 0 with priority 0.
0 | traffic_manager | Finding output VC for flit 7:
0 | traffic_manager |   Selected output VC 0.
0 | node9 | Generating lookahead routing info for flit 7.
0 | node9 | Injecting flit 7 into subnet 0 at time 0 with priority 0.
0 | traffic_manager | Finding output VC for flit 8:
0 | traffic_manager |   Selected output VC 0.
0 | node10 | Generating lookahead routing info for flit 8.
0 | node10 | Injecting flit 8 into subnet 0 at time 0 with priority 0.
0 | traffic_manager | Finding output VC for flit 9:
0 | traffic_manager |   Selected output VC 0.
0 | node11 | Generating lookahead routing info for flit 9.
0 | node11 | Injecting flit 9 into subnet 0 at time 0 with priority 0.
0 | traffic_manager | Finding output VC for flit 10:
0 | traffic_manager |   Selected output VC 0.
0 | node12 | Generating lookahead routing info for flit 10.
0 | node12 | Injecting flit 10 into subnet 0 at time 0 with priority 0.
1 | network_0/network_0_fchan_ingress1 | Beginning channel traversal for flit 1 with delay 1.
1 | network_0/network_0_fchan_ingress2 | Beginning channel traversal for flit 2 with delay 1.
1 | network_0/network_0_fchan_ingress3 | Beginning channel traversal for flit 3 with delay 1.
1 | network_0/network_0_fchan_ingress4 | Beginning channel traversal for flit 4 with delay 1.
1 | network_0/network_0_fchan_ingress5 | Beginning channel traversal for flit 5 with delay 1.
1 | network_0/network_0_fchan_ingress8 | Beginning channel traversal for flit 6 with delay 1.
1 | network_0/network_0_fchan_ingress9 | Beginning channel traversal for flit 7 with delay 1.
1 | network_0/network_0_fchan_ingress10 | Beginning channel traversal for flit 8 with delay 1.
1 | network_0/network_0_fchan_ingress11 | Beginning channel traversal for flit 9 with delay 1.
1 | network_0/network_0_fchan_ingress12 | Beginning channel traversal for flit 10 with delay 1.
1 | network_0/network_0_fchan_ingress1 | Completed channel traversal for flit 1.
1 | network_0/network_0_fchan_ingress2 | Completed channel traversal for flit 2.
1 | network_0/network_0_fchan_ingress3 | Completed channel traversal for flit 3.
1 | network_0/network_0_fchan_ingress4 | Completed channel traversal for flit 4.
1 | network_0/network_0_fchan_ingress5 | Completed channel traversal for flit 5.
1 | network_0/network_0_fchan_ingress8 | Completed channel traversal for flit 6.
1 | network_0/network_0_fchan_ingress9 | Completed channel traversal for flit 7.
1 | network_0/network_0_fchan_ingress10 | Completed channel traversal for flit 8.
1 | network_0/network_0_fchan_ingress11 | Completed channel traversal for flit 9.
1 | network_0/network_0_fchan_ingress12 | Completed channel traversal for flit 10.
2 | network_0/router_level3_0 | Received flit 1 from channel at input 1.
2 | network_0/router_level3_0 | Received flit 2 from channel at input 2.
2 | network_0/router_level3_0 | Received flit 3 from channel at input 3.
2 | network_0/router_level3_0 | Received flit 4 from channel at input 4.
2 | network_0/router_level3_0 | Received flit 5 from channel at input 5.
2 | network_0/router_level3_1 | Received flit 6 from channel at input 0.
2 | network_0/router_level3_1 | Received flit 7 from channel at input 1.
2 | network_0/router_level3_1 | Received flit 8 from channel at input 2.
2 | network_0/router_level3_1 | Received flit 9 from channel at input 3.
2 | network_0/router_level3_1 | Received flit 10 from channel at input 4.
2 | network_0/router_level3_0 | Adding flit 1 to VC 0 at input 1 (state: idle, empty).
2 | network_0/router_level3_0 | Using precomputed lookahead routing information for VC 0 at input 1 (front: 1).
2 | network_0/router_level3_0/buf_1/vc_0 | Changing state from idle to vc_alloc.
2 | network_0/router_level3_0 | Adding flit 2 to VC 0 at input 2 (state: idle, empty).
2 | network_0/router_level3_0 | Using precomputed lookahead routing information for VC 0 at input 2 (front: 2).
2 | network_0/router_level3_0/buf_2/vc_0 | Changing state from idle to vc_alloc.
2 | network_0/router_level3_0 | Adding flit 3 to VC 0 at input 3 (state: idle, empty).
2 | network_0/router_level3_0 | Using precomputed lookahead routing information for VC 0 at input 3 (front: 3).
2 | network_0/router_level3_0/buf_3/vc_0 | Changing state from idle to vc_alloc.
2 | network_0/router_level3_0 | Adding flit 4 to VC 0 at input 4 (state: idle, empty).
2 | network_0/router_level3_0 | Using precomputed lookahead routing information for VC 0 at input 4 (front: 4).
2 | network_0/router_level3_0/buf_4/vc_0 | Changing state from idle to vc_alloc.
2 | network_0/router_level3_0 | Adding flit 5 to VC 0 at input 5 (state: idle, empty).
2 | network_0/router_level3_0 | Using precomputed lookahead routing information for VC 0 at input 5 (front: 5).
2 | network_0/router_level3_0/buf_5/vc_0 | Changing state from idle to vc_alloc.
2 | network_0/router_level3_0 | Beginning VC allocation for VC 0 at input 1 (front: 1).
2 | network_0/router_level3_0 |   Requesting VC 0 at output 9 (in_pri: 0, out_pri: 0).
2 | network_0/router_level3_0 |   Requesting VC 1 at output 9 (in_pri: 0, out_pri: 0).
2 | network_0/router_level3_0 |   Requesting VC 2 at output 9 (in_pri: 0, out_pri: 0).
2 | network_0/router_level3_0 |   Requesting VC 3 at output 9 (in_pri: 0, out_pri: 0).
2 | network_0/router_level3_0 | Beginning VC allocation for VC 0 at input 2 (front: 2).
2 | network_0/router_level3_0 |   Requesting VC 0 at output 8 (in_pri: 0, out_pri: 0).
2 | network_0/router_level3_0 |   Requesting VC 1 at output 8 (in_pri: 0, out_pri: 0).
2 | network_0/router_level3_0 |   Requesting VC 2 at output 8 (in_pri: 0, out_pri: 0).
2 | network_0/router_level3_0 |   Requesting VC 3 at output 8 (in_pri: 0, out_pri: 0).
2 | network_0/router_level3_0 | Beginning VC allocation for VC 0 at input 3 (front: 3).
2 | network_0/router_level3_0 |   Requesting VC 0 at output 12 (in_pri: 0, out_pri: 0).
2 | network_0/router_level3_0 |   Requesting VC 1 at output 12 (in_pri: 0, out_pri: 0).
2 | network_0/router_level3_0 |   Requesting VC 2 at output 12 (in_pri: 0, out_pri: 0).
2 | network_0/router_level3_0 |   Requesting VC 3 at output 12 (in_pri: 0, out_pri: 0).
2 | network_0/router_level3_0 | Beginning VC allocation for VC 0 at input 4 (front: 4).
2 | network_0/router_level3_0 |   Requesting VC 0 at output 10 (in_pri: 0, out_pri: 0).
2 | network_0/router_level3_0 |   Requesting VC 1 at output 10 (in_pri: 0, out_pri: 0).
2 | network_0/router_level3_0 |   Requesting VC 2 at output 10 (in_pri: 0, out_pri: 0).
2 | network_0/router_level3_0 |   Requesting VC 3 at output 10 (in_pri: 0, out_pri: 0).
2 | network_0/router_level3_0 | Beginning VC allocation for VC 0 at input 5 (front: 5).
2 | network_0/router_level3_0 |   Requesting VC 0 at output 14 (in_pri: 0, out_pri: 0).
2 | network_0/router_level3_0 |   Requesting VC 1 at output 14 (in_pri: 0, out_pri: 0).
2 | network_0/router_level3_0 |   Requesting VC 2 at output 14 (in_pri: 0, out_pri: 0).
2 | network_0/router_level3_0 |   Requesting VC 3 at output 14 (in_pri: 0, out_pri: 0).
2 | network_0/router_level3_0/vc_allocator | Input requests = [ 0 -> [ 0@0 1@0 2@0 3@0 ]  4 -> [ 36@0 37@0 38@0 39@0 ]  8 -> [ 32@0 33@0 34@0 35@0 ]  12 -> [ 48@0 49@0 50@0 51@0 ]  16 -> [ 40@0 41@0 42@0 43@0 ]  20 -> [ 56@0 57@0 58@0 59@0 ]  ], output requests = [ 0 -> [ 0@0 ]  1 -> [ 0@0 ]  2 -> [ 0@0 ]  3 -> [ 0@0 ]  32 -> [ 8@0 ]  33 -> [ 8@0 ]  34 -> [ 8@0 ]  35 -> [ 8@0 ]  36 -> [ 4@0 ]  37 -> [ 4@0 ]  38 -> [ 4@0 ]  39 -> [ 4@0 ]  40 -> [ 16@0 ]  41 -> [ 16@0 ]  42 -> [ 16@0 ]  43 -> [ 16@0 ]  48 -> [ 12@0 ]  49 -> [ 12@0 ]  50 -> [ 12@0 ]  51 -> [ 12@0 ]  56 -> [ 20@0 ]  57 -> [ 20@0 ]  58 -> [ 20@0 ]  59 -> [ 20@0 ]  ].
2 | network_0/router_level3_0/vc_allocator | Input grants = [ 0 -> 0  4 -> 36  8 -> 32  12 -> 48  16 -> 40  20 -> 56  ], output grants = [ 0 -> 0  32 -> 8  36 -> 4  40 -> 16  48 -> 12  56 -> 20  ].
2 | network_0/router_level3_0 | Assigning VC 0 at output 9 to VC 0 at input 1.
2 | network_0/router_level3_0 | Assigning VC 0 at output 8 to VC 0 at input 2.
2 | network_0/router_level3_0 | Assigning VC 0 at output 12 to VC 0 at input 3.
2 | network_0/router_level3_0 | Assigning VC 0 at output 10 to VC 0 at input 4.
2 | network_0/router_level3_0 | Assigning VC 0 at output 14 to VC 0 at input 5.
2 | network_0/router_level3_0 | Completed VC allocation for VC 0 at input 1 (front: 1).
2 | network_0/router_level3_0 |   Acquiring assigned VC 0 at output 9.
2 | network_0/router_level3_0/buf_1/vc_0 | Changing state from vc_alloc to active.
2 | network_0/router_level3_0 | Completed VC allocation for VC 0 at input 2 (front: 2).
2 | network_0/router_level3_0 |   Acquiring assigned VC 0 at output 8.
2 | network_0/router_level3_0/buf_2/vc_0 | Changing state from vc_alloc to active.
2 | network_0/router_level3_0 | Completed VC allocation for VC 0 at input 3 (front: 3).
2 | network_0/router_level3_0 |   Acquiring assigned VC 0 at output 12.
2 | network_0/router_level3_0/buf_3/vc_0 | Changing state from vc_alloc to active.
2 | network_0/router_level3_0 | Completed VC allocation for VC 0 at input 4 (front: 4).
2 | network_0/router_level3_0 |   Acquiring assigned VC 0 at output 10.
2 | network_0/router_level3_0/buf_4/vc_0 | Changing state from vc_alloc to active.
2 | network_0/router_level3_0 | Completed VC allocation for VC 0 at input 5 (front: 5).
2 | network_0/router_level3_0 |   Acquiring assigned VC 0 at output 14.
2 | network_0/router_level3_0/buf_5/vc_0 | Changing state from vc_alloc to active.
2 | network_0/router_level3_1 | Adding flit 6 to VC 0 at input 0 (state: idle, empty).
2 | network_0/router_level3_1 | Using precomputed lookahead routing information for VC 0 at input 0 (front: 6).
2 | network_0/router_level3_1/buf_0/vc_0 | Changing state from idle to vc_alloc.
2 | network_0/router_level3_1 | Adding flit 7 to VC 0 at input 1 (state: idle, empty).
2 | network_0/router_level3_1 | Using precomputed lookahead routing information for VC 0 at input 1 (front: 7).
2 | network_0/router_level3_1/buf_1/vc_0 | Changing state from idle to vc_alloc.
2 | network_0/router_level3_1 | Adding flit 8 to VC 0 at input 2 (state: idle, empty).
2 | network_0/router_level3_1 | Using precomputed lookahead routing information for VC 0 at input 2 (front: 8).
2 | network_0/router_level3_1/buf_2/vc_0 | Changing state from idle to vc_alloc.
2 | network_0/router_level3_1 | Adding flit 9 to VC 0 at input 3 (state: idle, empty).
2 | network_0/router_level3_1 | Using precomputed lookahead routing information for VC 0 at input 3 (front: 9).
2 | network_0/router_level3_1/buf_3/vc_0 | Changing state from idle to vc_alloc.
2 | network_0/router_level3_1 | Adding flit 10 to VC 0 at input 4 (state: idle, empty).
2 | network_0/router_level3_1 | Using precomputed lookahead routing information for VC 0 at input 4 (front: 10).
2 | network_0/router_level3_1/buf_4/vc_0 | Changing state from idle to vc_alloc.
2 | network_0/router_level3_1 | Beginning VC allocation for VC 0 at input 0 (front: 6).
2 | network_0/router_level3_1 |   Requesting VC 0 at output 15 (in_pri: 0, out_pri: 0).
2 | network_0/router_level3_1 |   Requesting VC 1 at output 15 (in_pri: 0, out_pri: 0).
2 | network_0/router_level3_1 |   Requesting VC 2 at output 15 (in_pri: 0, out_pri: 0).
2 | network_0/router_level3_1 |   Requesting VC 3 at output 15 (in_pri: 0, out_pri: 0).
2 | network_0/router_level3_1 | Beginning VC allocation for VC 0 at input 1 (front: 7).
2 | network_0/router_level3_1 |   Requesting VC 0 at output 14 (in_pri: 0, out_pri: 0).
2 | network_0/router_level3_1 |   Requesting VC 1 at output 14 (in_pri: 0, out_pri: 0).
2 | network_0/router_level3_1 |   Requesting VC 2 at output 14 (in_pri: 0, out_pri: 0).
2 | network_0/router_level3_1 |   Requesting VC 3 at output 14 (in_pri: 0, out_pri: 0).
2 | network_0/router_level3_1 | Beginning VC allocation for VC 0 at input 2 (front: 8).
2 | network_0/router_level3_1 |   Requesting VC 0 at output 12 (in_pri: 0, out_pri: 0).
2 | network_0/router_level3_1 |   Requesting VC 1 at output 12 (in_pri: 0, out_pri: 0).
2 | network_0/router_level3_1 |   Requesting VC 2 at output 12 (in_pri: 0, out_pri: 0).
2 | network_0/router_level3_1 |   Requesting VC 3 at output 12 (in_pri: 0, out_pri: 0).
2 | network_0/router_level3_1 | Beginning VC allocation for VC 0 at input 3 (front: 9).
2 | network_0/router_level3_1 |   Requesting VC 0 at output 14 (in_pri: 0, out_pri: 0).
2 | network_0/router_level3_1 |   Requesting VC 1 at output 14 (in_pri: 0, out_pri: 0).
2 | network_0/router_level3_1 |   Requesting VC 2 at output 14 (in_pri: 0, out_pri: 0).
2 | network_0/router_level3_1 |   Requesting VC 3 at output 14 (in_pri: 0, out_pri: 0).
2 | network_0/router_level3_1 | Beginning VC allocation for VC 0 at input 4 (front: 10).
2 | network_0/router_level3_1 |   Requesting VC 0 at output 10 (in_pri: 0, out_pri: 0).
2 | network_0/router_level3_1 |   Requesting VC 1 at output 10 (in_pri: 0, out_pri: 0).
2 | network_0/router_level3_1 |   Requesting VC 2 at output 10 (in_pri: 0, out_pri: 0).
2 | network_0/router_level3_1 |   Requesting VC 3 at output 10 (in_pri: 0, out_pri: 0).
2 | network_0/router_level3_1/vc_allocator | Input requests = [ 0 -> [ 60@0 61@0 62@0 63@0 ]  4 -> [ 56@0 57@0 58@0 59@0 ]  8 -> [ 48@0 49@0 50@0 51@0 ]  12 -> [ 56@0 57@0 58@0 59@0 ]  16 -> [ 40@0 41@0 42@0 43@0 ]  20 -> [ 36@0 37@0 38@0 39@0 ]  24 -> [ 56@0 57@0 58@0 59@0 ]  28 -> [ 32@0 33@0 34@0 35@0 ]  ], output requests = [ 32 -> [ 28@0 ]  33 -> [ 28@0 ]  34 -> [ 28@0 ]  35 -> [ 28@0 ]  36 -> [ 20@0 ]  37 -> [ 20@0 ]  38 -> [ 20@0 ]  39 -> [ 20@0 ]  40 -> [ 16@0 ]  41 -> [ 16@0 ]  42 -> [ 16@0 ]  43 -> [ 16@0 ]  48 -> [ 8@0 ]  49 -> [ 8@0 ]  50 -> [ 8@0 ]  51 -> [ 8@0 ]  56 -> [ 4@0 12@0 24@0 ]  57 -> [ 4@0 12@0 24@0 ]  58 -> [ 4@0 12@0 24@0 ]  59 -> [ 4@0 12@0 24@0 ]  60 -> [ 0@0 ]  61 -> [ 0@0 ]  62 -> [ 0@0 ]  63 -> [ 0@0 ]  ].
2 | network_0/router_level3_1/vc_allocator | Input grants = [ 0 -> 60  4 -> 56  8 -> 48  16 -> 40  20 -> 36  28 -> 32  ], output grants = [ 32 -> 28  36 -> 20  40 -> 16  48 -> 8  56 -> 4  60 -> 0  ].
2 | network_0/router_level3_1 | Assigning VC 0 at output 15 to VC 0 at input 0.
2 | network_0/router_level3_1 | Assigning VC 0 at output 14 to VC 0 at input 1.
2 | network_0/router_level3_1 | Assigning VC 0 at output 12 to VC 0 at input 2.
2 | network_0/router_level3_1 | VC allocation failed for VC 0 at input 3.
2 | network_0/router_level3_1 | Assigning VC 0 at output 10 to VC 0 at input 4.
2 | network_0/router_level3_1 | Completed VC allocation for VC 0 at input 0 (front: 6).
2 | network_0/router_level3_1 |   Acquiring assigned VC 0 at output 15.
2 | network_0/router_level3_1/buf_0/vc_0 | Changing state from vc_alloc to active.
2 | network_0/router_level3_1 | Completed VC allocation for VC 0 at input 1 (front: 7).
2 | network_0/router_level3_1 |   Acquiring assigned VC 0 at output 14.
2 | network_0/router_level3_1/buf_1/vc_0 | Changing state from vc_alloc to active.
2 | network_0/router_level3_1 | Completed VC allocation for VC 0 at input 2 (front: 8).
2 | network_0/router_level3_1 |   Acquiring assigned VC 0 at output 12.
2 | network_0/router_level3_1/buf_2/vc_0 | Changing state from vc_alloc to active.
2 | network_0/router_level3_1 | Completed VC allocation for VC 0 at input 3 (front: 9).
2 | network_0/router_level3_1 |   No output VC allocated.
2 | network_0/router_level3_1 | Completed VC allocation for VC 0 at input 4 (front: 10).
2 | network_0/router_level3_1 |   Acquiring assigned VC 0 at output 10.
2 | network_0/router_level3_1/buf_4/vc_0 | Changing state from vc_alloc to active.
3 | network_0/router_level3_0 | Beginning switch allocation for VC 0 at input 1 (front: 1).
3 | network_0/router_level3_0 |   Requesting output 9.0 (non-spec, pri: 0).
3 | network_0/router_level3_0 | Beginning switch allocation for VC 0 at input 2 (front: 2).
3 | network_0/router_level3_0 |   Requesting output 8.0 (non-spec, pri: 0).
3 | network_0/router_level3_0 | Beginning switch allocation for VC 0 at input 3 (front: 3).
3 | network_0/router_level3_0 |   Requesting output 12.0 (non-spec, pri: 0).
3 | network_0/router_level3_0 | Beginning switch allocation for VC 0 at input 4 (front: 4).
3 | network_0/router_level3_0 |   Requesting output 10.0 (non-spec, pri: 0).
3 | network_0/router_level3_0 | Beginning switch allocation for VC 0 at input 5 (front: 5).
3 | network_0/router_level3_0 |   Requesting output 14.0 (non-spec, pri: 0).
3 | network_0/router_level3_0/sw_allocator | Input requests = [ 0 -> [ 0@0 ]  1 -> [ 9@0 ]  2 -> [ 8@0 ]  3 -> [ 12@0 ]  4 -> [ 10@0 ]  5 -> [ 14@0 ]  ], output requests = [ 0 -> [ 0@0 ]  8 -> [ 2@0 ]  9 -> [ 1@0 ]  10 -> [ 4@0 ]  12 -> [ 3@0 ]  14 -> [ 5@0 ]  ].
3 | network_0/router_level3_0/sw_allocator | Input grants = [ 0 -> 0  1 -> 9  2 -> 8  3 -> 12  4 -> 10  5 -> 14  ], output grants = [ 0 -> 0  8 -> 2  9 -> 1  10 -> 4  12 -> 3  14 -> 5  ].
3 | network_0/router_level3_0 | Assigning output 9.0 to VC 0 at input 1.0.
3 | network_0/router_level3_0 | Assigning output 8.0 to VC 0 at input 2.0.
3 | network_0/router_level3_0 | Assigning output 12.0 to VC 0 at input 3.0.
3 | network_0/router_level3_0 | Assigning output 10.0 to VC 0 at input 4.0.
3 | network_0/router_level3_0 | Assigning output 14.0 to VC 0 at input 5.0.
3 | network_0/router_level3_0 | Completed switch allocation for VC 0 at input 1 (front: 1).
3 | network_0/router_level3_0 |   Scheduling switch connection from input 1.0 to output 9.0.
3 | network_0/router_level3_0 | Updating lookahead routing information for flit 1.
3 | network_0/router_level3_0 | Completed switch allocation for VC 0 at input 2 (front: 2).
3 | network_0/router_level3_0 |   Scheduling switch connection from input 2.0 to output 8.0.
3 | network_0/router_level3_0 | Updating lookahead routing information for flit 2.
3 | network_0/router_level3_0 | Completed switch allocation for VC 0 at input 3 (front: 3).
3 | network_0/router_level3_0 |   Scheduling switch connection from input 3.0 to output 12.0.
3 | network_0/router_level3_0 | Updating lookahead routing information for flit 3.
3 | network_0/router_level3_0 | Completed switch allocation for VC 0 at input 4 (front: 4).
3 | network_0/router_level3_0 |   Scheduling switch connection from input 4.0 to output 10.0.
3 | network_0/router_level3_0 | Updating lookahead routing information for flit 4.
3 | network_0/router_level3_0 | Completed switch allocation for VC 0 at input 5 (front: 5).
3 | network_0/router_level3_0 |   Scheduling switch connection from input 5.0 to output 14.0.
3 | network_0/router_level3_0 | Updating lookahead routing information for flit 5.
3 | network_0/router_level3_1 | Beginning VC allocation for VC 0 at input 3 (front: 9).
3 | network_0/router_level3_1 |   VC 0 at output 14 is in use by VC 0 at input 1 (front flit: 7).
3 | network_0/router_level3_1 |   Requesting VC 1 at output 14 (in_pri: 0, out_pri: 0).
3 | network_0/router_level3_1 |   Requesting VC 2 at output 14 (in_pri: 0, out_pri: 0).
3 | network_0/router_level3_1 |   Requesting VC 3 at output 14 (in_pri: 0, out_pri: 0).
3 | network_0/router_level3_1/vc_allocator | Input requests = [ 1 -> [ 61@0 62@0 63@0 ]  5 -> [ 61@0 62@0 63@0 ]  12 -> [ 57@0 58@0 59@0 ]  17 -> [ 33@0 34@0 35@0 ]  21 -> [ 33@0 34@0 35@0 ]  24 -> [ 57@0 58@0 59@0 ]  25 -> [ 57@0 58@0 59@0 ]  ], output requests = [ 33 -> [ 17@0 21@0 ]  34 -> [ 17@0 21@0 ]  35 -> [ 17@0 21@0 ]  57 -> [ 12@0 24@0 25@0 ]  58 -> [ 12@0 24@0 25@0 ]  59 -> [ 12@0 24@0 25@0 ]  61 -> [ 1@0 5@0 ]  62 -> [ 1@0 5@0 ]  63 -> [ 1@0 5@0 ]  ].
3 | network_0/router_level3_1/vc_allocator | Input grants = [ 1 -> 61  12 -> 57  17 -> 33  ], output grants = [ 33 -> 17  57 -> 12  61 -> 1  ].
3 | network_0/router_level3_1 | Assigning VC 1 at output 14 to VC 0 at input 3.
3 | network_0/router_level3_1 | Beginning switch allocation for VC 0 at input 0 (front: 6).
3 | network_0/router_level3_1 |   Requesting output 15.0 (non-spec, pri: 0).
3 | network_0/router_level3_1 | Beginning switch allocation for VC 0 at input 1 (front: 7).
3 | network_0/router_level3_1 |   Requesting output 14.0 (non-spec, pri: 0).
3 | network_0/router_level3_1 | Beginning switch allocation for VC 0 at input 2 (front: 8).
3 | network_0/router_level3_1 |   Requesting output 12.0 (non-spec, pri: 0).
3 | network_0/router_level3_1 | Beginning switch allocation for VC 0 at input 4 (front: 10).
3 | network_0/router_level3_1 |   Requesting output 10.0 (non-spec, pri: 0).
3 | network_0/router_level3_1/sw_allocator | Input requests = [ 0 -> [ 15@0 ]  1 -> [ 14@0 ]  2 -> [ 12@0 ]  4 -> [ 10@0 ]  5 -> [ 9@0 ]  7 -> [ 8@0 ]  ], output requests = [ 8 -> [ 7@0 ]  9 -> [ 5@0 ]  10 -> [ 4@0 ]  12 -> [ 2@0 ]  14 -> [ 1@0 ]  15 -> [ 0@0 ]  ].
3 | network_0/router_level3_1/sw_allocator | Input grants = [ 0 -> 15  1 -> 14  2 -> 12  4 -> 10  5 -> 9  7 -> 8  ], output grants = [ 8 -> 7  9 -> 5  10 -> 4  12 -> 2  14 -> 1  15 -> 0  ].
3 | network_0/router_level3_1 | Assigning output 15.0 to VC 0 at input 0.0.
3 | network_0/router_level3_1 | Assigning output 14.0 to VC 0 at input 1.0.
3 | network_0/router_level3_1 | Assigning output 12.0 to VC 0 at input 2.0.
3 | network_0/router_level3_1 | Assigning output 10.0 to VC 0 at input 4.0.
3 | network_0/router_level3_1 | Completed VC allocation for VC 0 at input 3 (front: 9).
3 | network_0/router_level3_1 |   Acquiring assigned VC 1 at output 14.
3 | network_0/router_level3_1/buf_3/vc_0 | Changing state from vc_alloc to active.
3 | network_0/router_level3_1 | Completed switch allocation for VC 0 at input 0 (front: 6).
3 | network_0/router_level3_1 |   Scheduling switch connection from input 0.0 to output 15.0.
3 | network_0/router_level3_1 | Updating lookahead routing information for flit 6.
3 | network_0/router_level3_1 | Completed switch allocation for VC 0 at input 1 (front: 7).
3 | network_0/router_level3_1 |   Scheduling switch connection from input 1.0 to output 14.0.
3 | network_0/router_level3_1 | Updating lookahead routing information for flit 7.
3 | network_0/router_level3_1 | Completed switch allocation for VC 0 at input 2 (front: 8).
3 | network_0/router_level3_1 |   Scheduling switch connection from input 2.0 to output 12.0.
3 | network_0/router_level3_1 | Updating lookahead routing information for flit 8.
3 | network_0/router_level3_1 | Completed switch allocation for VC 0 at input 4 (front: 10).
3 | network_0/router_level3_1 |   Scheduling switch connection from input 4.0 to output 10.0.
3 | network_0/router_level3_1 | Updating lookahead routing information for flit 10.
4 | network_0/router_level3_0 | Beginning crossbar traversal for flit 1 from input 1.0 to output 9.0.
4 | network_0/router_level3_0 | Beginning crossbar traversal for flit 2 from input 2.0 to output 8.0.
4 | network_0/router_level3_0 | Beginning crossbar traversal for flit 3 from input 3.0 to output 12.0.
4 | network_0/router_level3_0 | Beginning crossbar traversal for flit 4 from input 4.0 to output 10.0.
4 | network_0/router_level3_0 | Beginning crossbar traversal for flit 5 from input 5.0 to output 14.0.
4 | network_0/router_level3_0 | Completed crossbar traversal for flit 1 from input 1.0 to output 9.0.
4 | network_0/router_level3_0 | Buffering flit 1 at output 9.
4 | network_0/router_level3_0 | Completed crossbar traversal for flit 2 from input 2.0 to output 8.0.
4 | network_0/router_level3_0 | Buffering flit 2 at output 8.
4 | network_0/router_level3_0 | Completed crossbar traversal for flit 3 from input 3.0 to output 12.0.
4 | network_0/router_level3_0 | Buffering flit 3 at output 12.
4 | network_0/router_level3_0 | Completed crossbar traversal for flit 4 from input 4.0 to output 10.0.
4 | network_0/router_level3_0 | Buffering flit 4 at output 10.
4 | network_0/router_level3_0 | Completed crossbar traversal for flit 5 from input 5.0 to output 14.0.
4 | network_0/router_level3_0 | Buffering flit 5 at output 14.
4 | network_0/router_level3_1 | Beginning switch allocation for VC 0 at input 3 (front: 9).
4 | network_0/router_level3_1 |   Requesting output 14.0 (non-spec, pri: 0).
4 | network_0/router_level3_1/sw_allocator | Input requests = [ 0 -> [ 15@0 ]  3 -> [ 14@0 ]  4 -> [ 8@0 ]  ], output requests = [ 8 -> [ 4@0 ]  14 -> [ 3@0 ]  15 -> [ 0@0 ]  ].
4 | network_0/router_level3_1/sw_allocator | Input grants = [ 0 -> 15  3 -> 14  4 -> 8  ], output grants = [ 8 -> 4  14 -> 3  15 -> 0  ].
4 | network_0/router_level3_1 | Assigning output 14.0 to VC 0 at input 3.0.
4 | network_0/router_level3_1 | Beginning crossbar traversal for flit 6 from input 0.0 to output 15.0.
4 | network_0/router_level3_1 | Beginning crossbar traversal for flit 7 from input 1.0 to output 14.0.
4 | network_0/router_level3_1 | Beginning crossbar traversal for flit 8 from input 2.0 to output 12.0.
4 | network_0/router_level3_1 | Beginning crossbar traversal for flit 10 from input 4.0 to output 10.0.
4 | network_0/router_level3_1 | Completed switch allocation for VC 0 at input 3 (front: 9).
4 | network_0/router_level3_1 |   Scheduling switch connection from input 3.0 to output 14.0.
4 | network_0/router_level3_1 | Updating lookahead routing information for flit 9.
4 | network_0/router_level3_1 | Completed crossbar traversal for flit 6 from input 0.0 to output 15.0.
4 | network_0/router_level3_1 | Buffering flit 6 at output 15.
4 | network_0/router_level3_1 | Completed crossbar traversal for flit 7 from input 1.0 to output 14.0.
4 | network_0/router_level3_1 | Buffering flit 7 at output 14.
4 | network_0/router_level3_1 | Completed crossbar traversal for flit 8 from input 2.0 to output 12.0.
4 | network_0/router_level3_1 | Buffering flit 8 at output 12.
4 | network_0/router_level3_1 | Completed crossbar traversal for flit 10 from input 4.0 to output 10.0.
4 | network_0/router_level3_1 | Buffering flit 10 at output 10.
4 | network_0/router_level3_0 | Sending flit 2 to channel at output 8.
4 | network_0/router_level3_0 | Sending flit 1 to channel at output 9.
4 | network_0/router_level3_0 | Sending flit 4 to channel at output 10.
4 | network_0/router_level3_0 | Sending flit 3 to channel at output 12.
4 | network_0/router_level3_0 | Sending flit 5 to channel at output 14.
4 | network_0/router_level3_1 | Sending flit 10 to channel at output 10.
4 | network_0/router_level3_1 | Sending flit 8 to channel at output 12.
4 | network_0/router_level3_1 | Sending flit 7 to channel at output 14.
4 | network_0/router_level3_1 | Sending flit 6 to channel at output 15.
5 | network_0/network_0_fchan_20480 | Beginning channel traversal for flit 2 with delay 1.
5 | network_0/network_0_fchan_20481 | Beginning channel traversal for flit 1 with delay 1.
5 | network_0/network_0_fchan_20482 | Beginning channel traversal for flit 4 with delay 1.
5 | network_0/network_0_fchan_20484 | Beginning channel traversal for flit 3 with delay 1.
5 | network_0/network_0_fchan_20486 | Beginning channel traversal for flit 5 with delay 1.
5 | network_0/network_0_fchan_20490 | Beginning channel traversal for flit 10 with delay 1.
5 | network_0/network_0_fchan_20492 | Beginning channel traversal for flit 8 with delay 1.
5 | network_0/network_0_fchan_20494 | Beginning channel traversal for flit 7 with delay 1.
5 | network_0/network_0_fchan_20495 | Beginning channel traversal for flit 6 with delay 1.
5 | network_0/router_level3_1 | Beginning crossbar traversal for flit 9 from input 3.0 to output 14.0.
5 | network_0/router_level3_1 | Completed crossbar traversal for flit 9 from input 3.0 to output 14.0.
5 | network_0/router_level3_1 | Buffering flit 9 at output 14.
5 | network_0/network_0_fchan_20480 | Completed channel traversal for flit 2.
5 | network_0/network_0_fchan_20481 | Completed channel traversal for flit 1.
5 | network_0/network_0_fchan_20482 | Completed channel traversal for flit 4.
5 | network_0/network_0_fchan_20484 | Completed channel traversal for flit 3.
5 | network_0/network_0_fchan_20486 | Completed channel traversal for flit 5.
5 | network_0/network_0_fchan_20490 | Completed channel traversal for flit 10.
5 | network_0/network_0_fchan_20492 | Completed channel traversal for flit 8.
5 | network_0/network_0_fchan_20494 | Completed channel traversal for flit 7.
5 | network_0/network_0_fchan_20495 | Completed channel traversal for flit 6.
5 | network_0/router_level3_1 | Sending flit 9 to channel at output 14.
6 | network_0/network_0_fchan_20494 | Beginning channel traversal for flit 9 with delay 1.
6 | network_0/router_level2_0 | Received flit 2 from channel at input 0.
6 | network_0/router_level2_1 | Received flit 1 from channel at input 0.
6 | network_0/router_level2_2 | Received flit 4 from channel at input 0.
6 | network_0/router_level2_2 | Received flit 10 from channel at input 1.
6 | network_0/router_level2_4 | Received flit 3 from channel at input 0.
6 | network_0/router_level2_4 | Received flit 8 from channel at input 1.
6 | network_0/router_level2_6 | Received flit 5 from channel at input 0.
6 | network_0/router_level2_6 | Received flit 7 from channel at input 1.
6 | network_0/router_level2_7 | Received flit 6 from channel at input 1.
6 | network_0/router_level2_0 | Adding flit 2 to VC 0 at input 0 (state: idle, empty).
6 | network_0/router_level2_0 | Using precomputed lookahead routing information for VC 0 at input 0 (front: 2).
6 | network_0/router_level2_0/buf_0/vc_0 | Changing state from idle to vc_alloc.
6 | network_0/router_level2_0 | Beginning VC allocation for VC 0 at input 0 (front: 2).
6 | network_0/router_level2_0 |   Requesting VC 0 at output 14 (in_pri: 0, out_pri: 0).
6 | network_0/router_level2_0 |   Requesting VC 1 at output 14 (in_pri: 0, out_pri: 0).
6 | network_0/router_level2_0 |   Requesting VC 2 at output 14 (in_pri: 0, out_pri: 0).
6 | network_0/router_level2_0 |   Requesting VC 3 at output 14 (in_pri: 0, out_pri: 0).
6 | network_0/router_level2_0/vc_allocator | Input requests = [ 0 -> [ 56@0 57@0 58@0 59@0 ]  4 -> [ 52@0 53@0 54@0 55@0 ]  8 -> [ 52@0 53@0 54@0 55@0 ]  20 -> [ 36@0 37@0 38@0 39@0 ]  24 -> [ 60@0 61@0 62@0 63@0 ]  ], output requests = [ 36 -> [ 20@0 ]  37 -> [ 20@0 ]  38 -> [ 20@0 ]  39 -> [ 20@0 ]  52 -> [ 4@0 8@0 ]  53 -> [ 4@0 8@0 ]  54 -> [ 4@0 8@0 ]  55 -> [ 4@0 8@0 ]  56 -> [ 0@0 ]  57 -> [ 0@0 ]  58 -> [ 0@0 ]  59 -> [ 0@0 ]  60 -> [ 24@0 ]  61 -> [ 24@0 ]  62 -> [ 24@0 ]  63 -> [ 24@0 ]  ].
6 | network_0/router_level2_0/vc_allocator | Input grants = [ 0 -> 56  4 -> 52  20 -> 36  24 -> 60  ], output grants = [ 36 -> 20  52 -> 4  56 -> 0  60 -> 24  ].
6 | network_0/router_level2_0 | Assigning VC 0 at output 14 to VC 0 at input 0.
6 | network_0/router_level2_0 | Completed VC allocation for VC 0 at input 0 (front: 2).
6 | network_0/router_level2_0 |   Acquiring assigned VC 0 at output 14.
6 | network_0/router_level2_0/buf_0/vc_0 | Changing state from vc_alloc to active.
6 | network_0/router_level2_1 | Adding flit 1 to VC 0 at input 0 (state: idle, empty).
6 | network_0/router_level2_1 | Using precomputed lookahead routing information for VC 0 at input 0 (front: 1).
6 | network_0/router_level2_1/buf_0/vc_0 | Changing state from idle to vc_alloc.
6 | network_0/router_level2_1 | Beginning VC allocation for VC 0 at input 0 (front: 1).
6 | network_0/router_level2_1 |   Requesting VC 0 at output 14 (in_pri: 0, out_pri: 0).
6 | network_0/router_level2_1 |   Requesting VC 1 at output 14 (in_pri: 0, out_pri: 0).
6 | network_0/router_level2_1 |   Requesting VC 2 at output 14 (in_pri: 0, out_pri: 0).
6 | network_0/router_level2_1 |   Requesting VC 3 at output 14 (in_pri: 0, out_pri: 0).
6 | network_0/router_level2_1/vc_allocator | Input requests = [ 0 -> [ 56@0 57@0 58@0 59@0 ]  4 -> [ 48@0 49@0 50@0 51@0 ]  8 -> [ 32@0 33@0 34@0 35@0 ]  16 -> [ 32@0 33@0 34@0 35@0 ]  20 -> [ 56@0 57@0 58@0 59@0 ]  24 -> [ 56@0 57@0 58@0 59@0 ]  ], output requests = [ 32 -> [ 8@0 16@0 ]  33 -> [ 8@0 16@0 ]  34 -> [ 8@0 16@0 ]  35 -> [ 8@0 16@0 ]  48 -> [ 4@0 ]  49 -> [ 4@0 ]  50 -> [ 4@0 ]  51 -> [ 4@0 ]  56 -> [ 0@0 20@0 24@0 ]  57 -> [ 0@0 20@0 24@0 ]  58 -> [ 0@0 20@0 24@0 ]  59 -> [ 0@0 20@0 24@0 ]  ].
6 | network_0/router_level2_1/vc_allocator | Input grants = [ 0 -> 56  4 -> 48  8 -> 32  ], output grants = [ 32 -> 8  48 -> 4  56 -> 0  ].
6 | network_0/router_level2_1 | Assigning VC 0 at output 14 to VC 0 at input 0.
6 | network_0/router_level2_1 | Completed VC allocation for VC 0 at input 0 (front: 1).
6 | network_0/router_level2_1 |   Acquiring assigned VC 0 at output 14.
6 | network_0/router_level2_1/buf_0/vc_0 | Changing state from vc_alloc to active.
6 | network_0/router_level2_2 | Adding flit 4 to VC 0 at input 0 (state: idle, empty).
6 | network_0/router_level2_2 | Using precomputed lookahead routing information for VC 0 at input 0 (front: 4).
6 | network_0/router_level2_2/buf_0/vc_0 | Changing state from idle to vc_alloc.
6 | network_0/router_level2_2 | Adding flit 10 to VC 0 at input 1 (state: idle, empty).
6 | network_0/router_level2_2 | Using precomputed lookahead routing information for VC 0 at input 1 (front: 10).
6 | network_0/router_level2_2/buf_1/vc_0 | Changing state from idle to vc_alloc.
6 | network_0/router_level2_2 | Beginning VC allocation for VC 0 at input 0 (front: 4).
6 | network_0/router_level2_2 |   Requesting VC 0 at output 8 (in_pri: 0, out_pri: 0).
6 | network_0/router_level2_2 |   Requesting VC 1 at output 8 (in_pri: 0, out_pri: 0).
6 | network_0/router_level2_2 |   Requesting VC 2 at output 8 (in_pri: 0, out_pri: 0).
6 | network_0/router_level2_2 |   Requesting VC 3 at output 8 (in_pri: 0, out_pri: 0).
6 | network_0/router_level2_2 | Beginning VC allocation for VC 0 at input 1 (front: 10).
6 | network_0/router_level2_2 |   Requesting VC 0 at output 13 (in_pri: 0, out_pri: 0).
6 | network_0/router_level2_2 |   Requesting VC 1 at output 13 (in_pri: 0, out_pri: 0).
6 | network_0/router_level2_2 |   Requesting VC 2 at output 13 (in_pri: 0, out_pri: 0).
6 | network_0/router_level2_2 |   Requesting VC 3 at output 13 (in_pri: 0, out_pri: 0).
6 | network_0/router_level2_2/vc_allocator | Input requests = [ 0 -> [ 32@0 33@0 34@0 35@0 ]  4 -> [ 52@0 53@0 54@0 55@0 ]  16 -> [ 44@0 45@0 46@0 47@0 ]  24 -> [ 56@0 57@0 58@0 59@0 ]  28 -> [ 40@0 41@0 42@0 43@0 ]  ], output requests = [ 32 -> [ 0@0 ]  33 -> [ 0@0 ]  34 -> [ 0@0 ]  35 -> [ 0@0 ]  40 -> [ 28@0 ]  41 -> [ 28@0 ]  42 -> [ 28@0 ]  43 -> [ 28@0 ]  44 -> [ 16@0 ]  45 -> [ 16@0 ]  46 -> [ 16@0 ]  47 -> [ 16@0 ]  52 -> [ 4@0 ]  53 -> [ 4@0 ]  54 -> [ 4@0 ]  55 -> [ 4@0 ]  56 -> [ 24@0 ]  57 -> [ 24@0 ]  58 -> [ 24@0 ]  59 -> [ 24@0 ]  ].
6 | network_0/router_level2_2/vc_allocator | Input grants = [ 0 -> 32  4 -> 52  16 -> 44  24 -> 56  28 -> 40  ], output grants = [ 32 -> 0  40 -> 28  44 -> 16  52 -> 4  56 -> 24  ].
6 | network_0/router_level2_2 | Assigning VC 0 at output 8 to VC 0 at input 0.
6 | network_0/router_level2_2 | Assigning VC 0 at output 13 to VC 0 at input 1.
6 | network_0/router_level2_2 | Completed VC allocation for VC 0 at input 0 (front: 4).
6 | network_0/router_level2_2 |   Acquiring assigned VC 0 at output 8.
6 | network_0/router_level2_2/buf_0/vc_0 | Changing state from vc_alloc to active.
6 | network_0/router_level2_2 | Completed VC allocation for VC 0 at input 1 (front: 10).
6 | network_0/router_level2_2 |   Acquiring assigned VC 0 at output 13.
6 | network_0/router_level2_2/buf_1/vc_0 | Changing state from vc_alloc to active.
6 | network_0/router_level2_4 | Adding flit 3 to VC 0 at input 0 (state: idle, empty).
6 | network_0/router_level2_4 | Using precomputed lookahead routing information for VC 0 at input 0 (front: 3).
6 | network_0/router_level2_4/buf_0/vc_0 | Changing state from idle to vc_alloc.
6 | network_0/router_level2_4 | Adding flit 8 to VC 0 at input 1 (state: idle, empty).
6 | network_0/router_level2_4 | Using precomputed lookahead routing information for VC 0 at input 1 (front: 8).
6 | network_0/router_level2_4/buf_1/vc_0 | Changing state from idle to vc_alloc.
6 | network_0/router_level2_4 | Beginning VC allocation for VC 0 at input 0 (front: 3).
6 | network_0/router_level2_4 |   Requesting VC 0 at output 10 (in_pri: 0, out_pri: 0).
6 | network_0/router_level2_4 |   Requesting VC 1 at output 10 (in_pri: 0, out_pri: 0).
6 | network_0/router_level2_4 |   Requesting VC 2 at output 10 (in_pri: 0, out_pri: 0).
6 | network_0/router_level2_4 |   Requesting VC 3 at output 10 (in_pri: 0, out_pri: 0).
6 | network_0/router_level2_4 | Beginning VC allocation for VC 0 at input 1 (front: 8).
6 | network_0/router_level2_4 |   Requesting VC 0 at output 13 (in_pri: 0, out_pri: 0).
6 | network_0/router_level2_4 |   Requesting VC 1 at output 13 (in_pri: 0, out_pri: 0).
6 | network_0/router_level2_4 |   Requesting VC 2 at output 13 (in_pri: 0, out_pri: 0).
6 | network_0/router_level2_4 |   Requesting VC 3 at output 13 (in_pri: 0, out_pri: 0).
6 | network_0/router_level2_4/vc_allocator | Input requests = [ 0 -> [ 40@0 41@0 42@0 43@0 ]  4 -> [ 52@0 53@0 54@0 55@0 ]  8 -> [ 36@0 37@0 38@0 39@0 ]  24 -> [ 44@0 45@0 46@0 47@0 ]  28 -> [ 56@0 57@0 58@0 59@0 ]  ], output requests = [ 36 -> [ 8@0 ]  37 -> [ 8@0 ]  38 -> [ 8@0 ]  39 -> [ 8@0 ]  40 -> [ 0@0 ]  41 -> [ 0@0 ]  42 -> [ 0@0 ]  43 -> [ 0@0 ]  44 -> [ 24@0 ]  45 -> [ 24@0 ]  46 -> [ 24@0 ]  47 -> [ 24@0 ]  52 -> [ 4@0 ]  53 -> [ 4@0 ]  54 -> [ 4@0 ]  55 -> [ 4@0 ]  56 -> [ 28@0 ]  57 -> [ 28@0 ]  58 -> [ 28@0 ]  59 -> [ 28@0 ]  ].
6 | network_0/router_level2_4/vc_allocator | Input grants = [ 0 -> 40  4 -> 52  8 -> 36  24 -> 44  28 -> 56  ], output grants = [ 36 -> 8  40 -> 0  44 -> 24  52 -> 4  56 -> 28  ].
6 | network_0/router_level2_4 | Assigning VC 0 at output 10 to VC 0 at input 0.
6 | network_0/router_level2_4 | Assigning VC 0 at output 13 to VC 0 at input 1.
6 | network_0/router_level2_4 | Completed VC allocation for VC 0 at input 0 (front: 3).
6 | network_0/router_level2_4 |   Acquiring assigned VC 0 at output 10.
6 | network_0/router_level2_4/buf_0/vc_0 | Changing state from vc_alloc to active.
6 | network_0/router_level2_4 | Completed VC allocation for VC 0 at input 1 (front: 8).
6 | network_0/router_level2_4 |   Acquiring assigned VC 0 at output 13.
6 | network_0/router_level2_4/buf_1/vc_0 | Changing state from vc_alloc to active.
6 | network_0/router_level2_6 | Adding flit 5 to VC 0 at input 0 (state: idle, empty).
6 | network_0/router_level2_6 | Using precomputed lookahead routing information for VC 0 at input 0 (front: 5).
6 | network_0/router_level2_6/buf_0/vc_0 | Changing state from idle to vc_alloc.
6 | network_0/router_level2_6 | Adding flit 7 to VC 0 at input 1 (state: idle, empty).
6 | network_0/router_level2_6 | Using precomputed lookahead routing information for VC 0 at input 1 (front: 7).
6 | network_0/router_level2_6/buf_1/vc_0 | Changing state from idle to vc_alloc.
6 | network_0/router_level2_6 | Beginning VC allocation for VC 0 at input 0 (front: 5).
6 | network_0/router_level2_6 |   Requesting VC 0 at output 11 (in_pri: 0, out_pri: 0).
6 | network_0/router_level2_6 |   Requesting VC 1 at output 11 (in_pri: 0, out_pri: 0).
6 | network_0/router_level2_6 |   Requesting VC 2 at output 11 (in_pri: 0, out_pri: 0).
6 | network_0/router_level2_6 |   Requesting VC 3 at output 11 (in_pri: 0, out_pri: 0).
6 | network_0/router_level2_6 | Beginning VC allocation for VC 0 at input 1 (front: 7).
6 | network_0/router_level2_6 |   Requesting VC 0 at output 10 (in_pri: 0, out_pri: 0).
6 | network_0/router_level2_6 |   Requesting VC 1 at output 10 (in_pri: 0, out_pri: 0).
6 | network_0/router_level2_6 |   Requesting VC 2 at output 10 (in_pri: 0, out_pri: 0).
6 | network_0/router_level2_6 |   Requesting VC 3 at output 10 (in_pri: 0, out_pri: 0).
6 | network_0/router_level2_6/vc_allocator | Input requests = [ 0 -> [ 44@0 45@0 46@0 47@0 ]  4 -> [ 40@0 41@0 42@0 43@0 ]  8 -> [ 60@0 61@0 62@0 63@0 ]  12 -> [ 60@0 61@0 62@0 63@0 ]  16 -> [ 44@0 45@0 46@0 47@0 ]  20 -> [ 44@0 45@0 46@0 47@0 ]  24 -> [ 52@0 53@0 54@0 55@0 ]  ], output requests = [ 40 -> [ 4@0 ]  41 -> [ 4@0 ]  42 -> [ 4@0 ]  43 -> [ 4@0 ]  44 -> [ 0@0 16@0 20@0 ]  45 -> [ 0@0 16@0 20@0 ]  46 -> [ 0@0 16@0 20@0 ]  47 -> [ 0@0 16@0 20@0 ]  52 -> [ 24@0 ]  53 -> [ 24@0 ]  54 -> [ 24@0 ]  55 -> [ 24@0 ]  60 -> [ 8@0 12@0 ]  61 -> [ 8@0 12@0 ]  62 -> [ 8@0 12@0 ]  63 -> [ 8@0 12@0 ]  ].
6 | network_0/router_level2_6/vc_allocator | Input grants = [ 0 -> 44  4 -> 40  8 -> 60  24 -> 52  ], output grants = [ 40 -> 4  44 -> 0  52 -> 24  60 -> 8  ].
6 | network_0/router_level2_6 | Assigning VC 0 at output 11 to VC 0 at input 0.
6 | network_0/router_level2_6 | Assigning VC 0 at output 10 to VC 0 at input 1.
6 | network_0/router_level2_6 | Completed VC allocation for VC 0 at input 0 (front: 5).
6 | network_0/router_level2_6 |   Acquiring assigned VC 0 at output 11.
6 | network_0/router_level2_6/buf_0/vc_0 | Changing state from vc_alloc to active.
6 | network_0/router_level2_6 | Completed VC allocation for VC 0 at input 1 (front: 7).
6 | network_0/router_level2_6 |   Acquiring assigned VC 0 at output 10.
6 | network_0/router_level2_6/buf_1/vc_0 | Changing state from vc_alloc to active.
6 | network_0/router_level2_7 | Adding flit 6 to VC 0 at input 1 (state: idle, empty).
6 | network_0/router_level2_7 | Using precomputed lookahead routing information for VC 0 at input 1 (front: 6).
6 | network_0/router_level2_7/buf_1/vc_0 | Changing state from idle to vc_alloc.
6 | network_0/router_level2_7 | Beginning VC allocation for VC 0 at input 1 (front: 6).
6 | network_0/router_level2_7 |   Requesting VC 0 at output 8 (in_pri: 0, out_pri: 0).
6 | network_0/router_level2_7 |   Requesting VC 1 at output 8 (in_pri: 0, out_pri: 0).
6 | network_0/router_level2_7 |   Requesting VC 2 at output 8 (in_pri: 0, out_pri: 0).
6 | network_0/router_level2_7 |   Requesting VC 3 at output 8 (in_pri: 0, out_pri: 0).
6 | network_0/router_level2_7/vc_allocator | Input requests = [ 4 -> [ 32@0 33@0 34@0 35@0 ]  8 -> [ 56@0 57@0 58@0 59@0 ]  12 -> [ 44@0 45@0 46@0 47@0 ]  28 -> [ 52@0 53@0 54@0 55@0 ]  ], output requests = [ 32 -> [ 4@0 ]  33 -> [ 4@0 ]  34 -> [ 4@0 ]  35 -> [ 4@0 ]  44 -> [ 12@0 ]  45 -> [ 12@0 ]  46 -> [ 12@0 ]  47 -> [ 12@0 ]  52 -> [ 28@0 ]  53 -> [ 28@0 ]  54 -> [ 28@0 ]  55 -> [ 28@0 ]  56 -> [ 8@0 ]  57 -> [ 8@0 ]  58 -> [ 8@0 ]  59 -> [ 8@0 ]  ].
6 | network_0/router_level2_7/vc_allocator | Input grants = [ 4 -> 32  8 -> 56  12 -> 44  28 -> 52  ], output grants = [ 32 -> 4  44 -> 12  52 -> 28  56 -> 8  ].
6 | network_0/router_level2_7 | Assigning VC 0 at output 8 to VC 0 at input 1.
6 | network_0/router_level2_7 | Completed VC allocation for VC 0 at input 1 (front: 6).
6 | network_0/router_level2_7 |   Acquiring assigned VC 0 at output 8.
6 | network_0/router_level2_7/buf_1/vc_0 | Changing state from vc_alloc to active.
6 | network_0/network_0_fchan_20494 | Completed channel traversal for flit 9.
7 | network_0/router_level2_6 | Received flit 9 from channel at input 1.
7 | network_0/router_level2_0 | Beginning switch allocation for VC 0 at input 0 (front: 2).
7 | network_0/router_level2_0 |   Requesting output 14.0 (non-spec, pri: 0).
7 | network_0/router_level2_0/sw_allocator | Input requests = [ 0 -> [ 14@0 ]  1 -> [ 13@0 ]  5 -> [ 9@0 ]  6 -> [ 15@0 ]  ], output requests = [ 9 -> [ 5@0 ]  13 -> [ 1@0 ]  14 -> [ 0@0 ]  15 -> [ 6@0 ]  ].
7 | network_0/router_level2_0/sw_allocator | Input grants = [ 0 -> 14  1 -> 13  5 -> 9  6 -> 15  ], output grants = [ 9 -> 5  13 -> 1  14 -> 0  15 -> 6  ].
7 | network_0/router_level2_0 | Assigning output 14.0 to VC 0 at input 0.0.
7 | network_0/router_level2_0 | Completed switch allocation for VC 0 at input 0 (front: 2).
7 | network_0/router_level2_0 |   Scheduling switch connection from input 0.0 to output 14.0.
7 | network_0/router_level2_0 | Updating lookahead routing information for flit 2.
7 | network_0/router_level2_1 | Beginning switch allocation for VC 0 at input 0 (front: 1).
7 | network_0/router_level2_1 |   Requesting output 14.0 (non-spec, pri: 0).
7 | network_0/router_level2_1/sw_allocator | Input requests = [ 0 -> [ 14@0 ]  1 -> [ 12@0 ]  2 -> [ 8@0 ]  ], output requests = [ 8 -> [ 2@0 ]  12 -> [ 1@0 ]  14 -> [ 0@0 ]  ].
7 | network_0/router_level2_1/sw_allocator | Input grants = [ 0 -> 14  1 -> 12  2 -> 8  ], output grants = [ 8 -> 2  12 -> 1  14 -> 0  ].
7 | network_0/router_level2_1 | Assigning output 14.0 to VC 0 at input 0.0.
7 | network_0/router_level2_1 | Completed switch allocation for VC 0 at input 0 (front: 1).
7 | network_0/router_level2_1 |   Scheduling switch connection from input 0.0 to output 14.0.
7 | network_0/router_level2_1 | Updating lookahead routing information for flit 1.
7 | network_0/router_level2_2 | Beginning switch allocation for VC 0 at input 0 (front: 4).
7 | network_0/router_level2_2 |   Requesting output 8.0 (non-spec, pri: 0).
7 | network_0/router_level2_2 | Beginning switch allocation for VC 0 at input 1 (front: 10).
7 | network_0/router_level2_2 |   Requesting output 13.0 (non-spec, pri: 0).
7 | network_0/router_level2_2/sw_allocator | Input requests = [ 0 -> [ 8@0 ]  1 -> [ 13@0 ]  4 -> [ 11@0 ]  6 -> [ 14@0 ]  7 -> [ 10@0 ]  ], output requests = [ 8 -> [ 0@0 ]  10 -> [ 7@0 ]  11 -> [ 4@0 ]  13 -> [ 1@0 ]  14 -> [ 6@0 ]  ].
7 | network_0/router_level2_2/sw_allocator | Input grants = [ 0 -> 8  1 -> 13  4 -> 11  6 -> 14  7 -> 10  ], output grants = [ 8 -> 0  10 -> 7  11 -> 4  13 -> 1  14 -> 6  ].
7 | network_0/router_level2_2 | Assigning output 8.0 to VC 0 at input 0.0.
7 | network_0/router_level2_2 | Assigning output 13.0 to VC 0 at input 1.0.
7 | network_0/router_level2_2 | Completed switch allocation for VC 0 at input 0 (front: 4).
7 | network_0/router_level2_2 |   Scheduling switch connection from input 0.0 to output 8.0.
7 | network_0/router_level2_2 | Updating lookahead routing information for flit 4.
7 | network_0/router_level2_2 | Completed switch allocation for VC 0 at input 1 (front: 10).
7 | network_0/router_level2_2 |   Scheduling switch connection from input 1.0 to output 13.0.
7 | network_0/router_level2_2 | Updating lookahead routing information for flit 10.
7 | network_0/router_level2_4 | Beginning switch allocation for VC 0 at input 0 (front: 3).
7 | network_0/router_level2_4 |   Requesting output 10.0 (non-spec, pri: 0).
7 | network_0/router_level2_4 | Beginning switch allocation for VC 0 at input 1 (front: 8).
7 | network_0/router_level2_4 |   Requesting output 13.0 (non-spec, pri: 0).
7 | network_0/router_level2_4/sw_allocator | Input requests = [ 0 -> [ 10@0 ]  1 -> [ 13@0 ]  2 -> [ 9@0 ]  6 -> [ 11@0 ]  7 -> [ 14@0 ]  ], output requests = [ 9 -> [ 2@0 ]  10 -> [ 0@0 ]  11 -> [ 6@0 ]  13 -> [ 1@0 ]  14 -> [ 7@0 ]  ].
7 | network_0/router_level2_4/sw_allocator | Input grants = [ 0 -> 10  1 -> 13  2 -> 9  6 -> 11  7 -> 14  ], output grants = [ 9 -> 2  10 -> 0  11 -> 6  13 -> 1  14 -> 7  ].
7 | network_0/router_level2_4 | Assigning output 10.0 to VC 0 at input 0.0.
7 | network_0/router_level2_4 | Assigning output 13.0 to VC 0 at input 1.0.
7 | network_0/router_level2_4 | Completed switch allocation for VC 0 at input 0 (front: 3).
7 | network_0/router_level2_4 |   Scheduling switch connection from input 0.0 to output 10.0.
7 | network_0/router_level2_4 | Updating lookahead routing information for flit 3.
7 | network_0/router_level2_4 | Completed switch allocation for VC 0 at input 1 (front: 8).
7 | network_0/router_level2_4 |   Scheduling switch connection from input 1.0 to output 13.0.
7 | network_0/router_level2_4 | Updating lookahead routing information for flit 8.
7 | network_0/router_level2_6 | Adding flit 9 to VC 1 at input 1 (state: idle, empty).
7 | network_0/router_level2_6 | Using precomputed lookahead routing information for VC 1 at input 1 (front: 9).
7 | network_0/router_level2_6/buf_1/vc_1 | Changing state from idle to vc_alloc.
7 | network_0/router_level2_6 | Beginning VC allocation for VC 1 at input 1 (front: 9).
7 | network_0/router_level2_6 |   VC 0 at output 13 is in use by VC 0 at input 6 (front flit: 42).
7 | network_0/router_level2_6 |   Requesting VC 1 at output 13 (in_pri: 0, out_pri: 0).
7 | network_0/router_level2_6 |   Requesting VC 2 at output 13 (in_pri: 0, out_pri: 0).
7 | network_0/router_level2_6 |   Requesting VC 3 at output 13 (in_pri: 0, out_pri: 0).
7 | network_0/router_level2_6/vc_allocator | Input requests = [ 1 -> [ 61@0 62@0 63@0 ]  5 -> [ 53@0 54@0 55@0 ]  9 -> [ 56@0 57@0 58@0 59@0 ]  12 -> [ 61@0 62@0 63@0 ]  13 -> [ 48@0 49@0 50@0 51@0 ]  16 -> [ 45@0 46@0 47@0 ]  20 -> [ 45@0 46@0 47@0 ]  21 -> [ 56@0 57@0 58@0 59@0 ]  28 -> [ 56@0 57@0 58@0 59@0 ]  ], output requests = [ 45 -> [ 16@0 20@0 ]  46 -> [ 16@0 20@0 ]  47 -> [ 16@0 20@0 ]  48 -> [ 13@0 ]  49 -> [ 13@0 ]  50 -> [ 13@0 ]  51 -> [ 13@0 ]  53 -> [ 5@0 ]  54 -> [ 5@0 ]  55 -> [ 5@0 ]  56 -> [ 9@0 21@0 28@0 ]  57 -> [ 9@0 21@0 28@0 ]  58 -> [ 9@0 21@0 28@0 ]  59 -> [ 9@0 21@0 28@0 ]  61 -> [ 1@0 12@0 ]  62 -> [ 1@0 12@0 ]  63 -> [ 1@0 12@0 ]  ].
7 | network_0/router_level2_6/vc_allocator | Input grants = [ 1 -> 61  5 -> 53  9 -> 56  13 -> 48  16 -> 45  ], output grants = [ 45 -> 16  48 -> 13  53 -> 5  56 -> 9  61 -> 1  ].
7 | network_0/router_level2_6 | Assigning VC 1 at output 13 to VC 1 at input 1.
7 | network_0/router_level2_6 | Beginning switch allocation for VC 0 at input 0 (front: 5).
7 | network_0/router_level2_6 |   Requesting output 11.0 (non-spec, pri: 0).
7 | network_0/router_level2_6 | Beginning switch allocation for VC 0 at input 1 (front: 7).
7 | network_0/router_level2_6 |   Requesting output 10.0 (non-spec, pri: 0).
7 | network_0/router_level2_6/sw_allocator | Input requests = [ 0 -> [ 11@0 ]  1 -> [ 10@0 ]  2 -> [ 15@0 ]  6 -> [ 13@0 ]  ], output requests = [ 10 -> [ 1@0 ]  11 -> [ 0@0 ]  13 -> [ 6@0 ]  15 -> [ 2@0 ]  ].
7 | network_0/router_level2_6/sw_allocator | Input grants = [ 0 -> 11  1 -> 10  2 -> 15  6 -> 13  ], output grants = [ 10 -> 1  11 -> 0  13 -> 6  15 -> 2  ].
7 | network_0/router_level2_6 | Assigning output 11.0 to VC 0 at input 0.0.
7 | network_0/router_level2_6 | Assigning output 10.0 to VC 0 at input 1.0.
7 | network_0/router_level2_6 | Completed VC allocation for VC 1 at input 1 (front: 9).
7 | network_0/router_level2_6 |   Acquiring assigned VC 1 at output 13.
7 | network_0/router_level2_6/buf_1/vc_1 | Changing state from vc_alloc to active.
7 | network_0/router_level2_6 | Completed switch allocation for VC 0 at input 0 (front: 5).
7 | network_0/router_level2_6 |   Scheduling switch connection from input 0.0 to output 11.0.
7 | network_0/router_level2_6 | Updating lookahead routing information for flit 5.
7 | network_0/router_level2_6 | Completed switch allocation for VC 0 at input 1 (front: 7).
7 | network_0/router_level2_6 |   Scheduling switch connection from input 1.0 to output 10.0.
7 | network_0/router_level2_6 | Updating lookahead routing information for flit 7.
7 | network_0/router_level2_7 | Beginning switch allocation for VC 0 at input 1 (front: 6).
7 | network_0/router_level2_7 |   Requesting output 8.0 (non-spec, pri: 0).
7 | network_0/router_level2_7/sw_allocator | Input requests = [ 1 -> [ 8@0 ]  2 -> [ 14@0 ]  3 -> [ 11@0 ]  7 -> [ 13@0 ]  ], output requests = [ 8 -> [ 1@0 ]  11 -> [ 3@0 ]  13 -> [ 7@0 ]  14 -> [ 2@0 ]  ].
7 | network_0/router_level2_7/sw_allocator | Input grants = [ 1 -> 8  2 -> 14  3 -> 11  7 -> 13  ], output grants = [ 8 -> 1  11 -> 3  13 -> 7  14 -> 2  ].
7 | network_0/router_level2_7 | Assigning output 8.0 to VC 0 at input 1.0.
7 | network_0/router_level2_7 | Completed switch allocation for VC 0 at input 1 (front: 6).
7 | network_0/router_level2_7 |   Scheduling switch connection from input 1.0 to output 8.0.
7 | network_0/router_level2_7 | Updating lookahead routing information for flit 6.
8 | network_0/router_level2_0 | Beginning crossbar traversal for flit 2 from input 0.0 to output 14.0.
8 | network_0/router_level2_0 | Completed crossbar traversal for flit 2 from input 0.0 to output 14.0.
8 | network_0/router_level2_0 | Buffering flit 2 at output 14.
8 | network_0/router_level2_1 | Beginning crossbar traversal for flit 1 from input 0.0 to output 14.0.
8 | network_0/router_level2_1 | Completed crossbar traversal for flit 1 from input 0.0 to output 14.0.
8 | network_0/router_level2_1 | Buffering flit 1 at output 14.
8 | network_0/router_level2_2 | Beginning crossbar traversal for flit 4 from input 0.0 to output 8.0.
8 | network_0/router_level2_2 | Beginning crossbar traversal for flit 10 from input 1.0 to output 13.0.
8 | network_0/router_level2_2 | Completed crossbar traversal for flit 4 from input 0.0 to output 8.0.
8 | network_0/router_level2_2 | Buffering flit 4 at output 8.
8 | network_0/router_level2_2 | Completed crossbar traversal for flit 10 from input 1.0 to output 13.0.
8 | network_0/router_level2_2 | Buffering flit 10 at output 13.
8 | network_0/router_level2_4 | Beginning crossbar traversal for flit 3 from input 0.0 to output 10.0.
8 | network_0/router_level2_4 | Beginning crossbar traversal for flit 8 from input 1.0 to output 13.0.
8 | network_0/router_level2_4 | Completed crossbar traversal for flit 3 from input 0.0 to output 10.0.
8 | network_0/router_level2_4 | Buffering flit 3 at output 10.
8 | network_0/router_level2_4 | Completed crossbar traversal for flit 8 from input 1.0 to output 13.0.
8 | network_0/router_level2_4 | Buffering flit 8 at output 13.
8 | network_0/router_level2_6 | Beginning switch allocation for VC 1 at input 1 (front: 9).
8 | network_0/router_level2_6 |   Requesting output 13.0 (non-spec, pri: 0).
8 | network_0/router_level2_6/sw_allocator | Input requests = [ 0 -> [ 15@0 ]  1 -> [ 13@0 ]  2 -> [ 14@0 ]  3 -> [ 12@0 ]  4 -> [ 11@0 ]  ], output requests = [ 11 -> [ 4@0 ]  12 -> [ 3@0 ]  13 -> [ 1@0 ]  14 -> [ 2@0 ]  15 -> [ 0@0 ]  ].
8 | network_0/router_level2_6/sw_allocator | Input grants = [ 0 -> 15  1 -> 13  2 -> 14  3 -> 12  4 -> 11  ], output grants = [ 11 -> 4  12 -> 3  13 -> 1  14 -> 2  15 -> 0  ].
8 | network_0/router_level2_6 | Assigning output 13.0 to VC 1 at input 1.0.
8 | network_0/router_level2_6 | Beginning crossbar traversal for flit 5 from input 0.0 to output 11.0.
8 | network_0/router_level2_6 | Beginning crossbar traversal for flit 7 from input 1.0 to output 10.0.
8 | network_0/router_level2_6 | Completed switch allocation for VC 1 at input 1 (front: 9).
8 | network_0/router_level2_6 |   Scheduling switch connection from input 1.0 to output 13.0.
8 | network_0/router_level2_6 | Updating lookahead routing information for flit 9.
8 | network_0/router_level2_6 | Completed crossbar traversal for flit 5 from input 0.0 to output 11.0.
8 | network_0/router_level2_6 | Buffering flit 5 at output 11.
8 | network_0/router_level2_6 | Completed crossbar traversal for flit 7 from input 1.0 to output 10.0.
8 | network_0/router_level2_6 | Buffering flit 7 at output 10.
8 | network_0/router_level2_7 | Beginning crossbar traversal for flit 6 from input 1.0 to output 8.0.
8 | network_0/router_level2_7 | Completed crossbar traversal for flit 6 from input 1.0 to output 8.0.
8 | network_0/router_level2_7 | Buffering flit 6 at output 8.
8 | network_0/router_level2_0 | Sending flit 2 to channel at output 14.
8 | network_0/router_level2_1 | Sending flit 1 to channel at output 14.
8 | network_0/router_level2_2 | Sending flit 4 to channel at output 8.
8 | network_0/router_level2_2 | Sending flit 10 to channel at output 13.
8 | network_0/router_level2_4 | Sending flit 3 to channel at output 10.
8 | network_0/router_level2_4 | Sending flit 8 to channel at output 13.
8 | network_0/router_level2_6 | Sending flit 7 to channel at output 10.
8 | network_0/router_level2_6 | Sending flit 5 to channel at output 11.
8 | network_0/router_level2_7 | Sending flit 6 to channel at output 8.
9 | network_0/network_0_fchan_12294 | Beginning channel traversal for flit 2 with delay 1.
9 | network_0/network_0_fchan_12302 | Beginning channel traversal for flit 1 with delay 1.
9 | network_0/network_0_fchan_12304 | Beginning channel traversal for flit 4 with delay 1.
9 | network_0/network_0_fchan_12309 | Beginning channel traversal for flit 10 with delay 1.
9 | network_0/network_0_fchan_12322 | Beginning channel traversal for flit 3 with delay 1.
9 | network_0/network_0_fchan_12325 | Beginning channel traversal for flit 8 with delay 1.
9 | network_0/network_0_fchan_12338 | Beginning channel traversal for flit 7 with delay 1.
9 | network_0/network_0_fchan_12339 | Beginning channel traversal for flit 5 with delay 1.
9 | network_0/network_0_fchan_12344 | Beginning channel traversal for flit 6 with delay 1.
9 | network_0/router_level2_6 | Beginning crossbar traversal for flit 9 from input 1.0 to output 13.0.
9 | network_0/router_level2_6 | Completed crossbar traversal for flit 9 from input 1.0 to output 13.0.
9 | network_0/router_level2_6 | Buffering flit 9 at output 13.
9 | network_0/network_0_fchan_12294 | Completed channel traversal for flit 2.
9 | network_0/network_0_fchan_12302 | Completed channel traversal for flit 1.
9 | network_0/network_0_fchan_12304 | Completed channel traversal for flit 4.
9 | network_0/network_0_fchan_12309 | Completed channel traversal for flit 10.
9 | network_0/network_0_fchan_12322 | Completed channel traversal for flit 3.
9 | network_0/network_0_fchan_12325 | Completed channel traversal for flit 8.
9 | network_0/network_0_fchan_12338 | Completed channel traversal for flit 7.
9 | network_0/network_0_fchan_12339 | Completed channel traversal for flit 5.
9 | network_0/network_0_fchan_12344 | Completed channel traversal for flit 6.
9 | network_0/router_level2_6 | Sending flit 9 to channel at output 13.
10 | network_0/network_0_fchan_12341 | Beginning channel traversal for flit 9 with delay 1.
10 | network_0/router_level1_2 | Received flit 4 from channel at input 0.
10 | network_0/router_level1_7 | Received flit 6 from channel at input 0.
10 | network_0/router_level1_20 | Received flit 3 from channel at input 0.
10 | network_0/router_level1_22 | Received flit 7 from channel at input 0.
10 | network_0/router_level1_30 | Received flit 5 from channel at input 0.
10 | network_0/router_level1_42 | Received flit 10 from channel at input 0.
10 | network_0/router_level1_44 | Received flit 8 from channel at input 0.
10 | network_0/router_level1_48 | Received flit 2 from channel at input 0.
10 | network_0/router_level1_49 | Received flit 1 from channel at input 0.
10 | network_0/router_level1_2 | Adding flit 4 to VC 0 at input 0 (state: idle, empty).
10 | network_0/router_level1_2 | Using precomputed lookahead routing information for VC 0 at input 0 (front: 4).
10 | network_0/router_level1_2/buf_0/vc_0 | Changing state from idle to vc_alloc.
10 | network_0/router_level1_2 | Beginning VC allocation for VC 0 at input 0 (front: 4).
10 | network_0/router_level1_2 |   Requesting VC 0 at output 4 (in_pri: 0, out_pri: 0).
10 | network_0/router_level1_2 |   Requesting VC 1 at output 4 (in_pri: 0, out_pri: 0).
10 | network_0/router_level1_2 |   Requesting VC 2 at output 4 (in_pri: 0, out_pri: 0).
10 | network_0/router_level1_2 |   Requesting VC 3 at output 4 (in_pri: 0, out_pri: 0).
10 | network_0/router_level1_2/vc_allocator | Input requests = [ 0 -> [ 16@0 17@0 18@0 19@0 ]  4 -> [ 12@0 13@0 14@0 15@0 ]  20 -> [ 12@0 13@0 14@0 15@0 ]  ], output requests = [ 12 -> [ 4@0 20@0 ]  13 -> [ 4@0 20@0 ]  14 -> [ 4@0 20@0 ]  15 -> [ 4@0 20@0 ]  16 -> [ 0@0 ]  17 -> [ 0@0 ]  18 -> [ 0@0 ]  19 -> [ 0@0 ]  ].
10 | network_0/router_level1_2/vc_allocator | Input grants = [ 0 -> 16  4 -> 12  ], output grants = [ 12 -> 4  16 -> 0  ].
10 | network_0/router_level1_2 | Assigning VC 0 at output 4 to VC 0 at input 0.
10 | network_0/router_level1_2 | Completed VC allocation for VC 0 at input 0 (front: 4).
10 | network_0/router_level1_2 |   Acquiring assigned VC 0 at output 4.
10 | network_0/router_level1_2/buf_0/vc_0 | Changing state from vc_alloc to active.
10 | network_0/router_level1_7 | Adding flit 6 to VC 0 at input 0 (state: idle, empty).
10 | network_0/router_level1_7 | Using precomputed lookahead routing information for VC 0 at input 0 (front: 6).
10 | network_0/router_level1_7/buf_0/vc_0 | Changing state from idle to vc_alloc.
10 | network_0/router_level1_7 | Beginning VC allocation for VC 0 at input 0 (front: 6).
10 | network_0/router_level1_7 |   Requesting VC 0 at output 14 (in_pri: 0, out_pri: 0).
10 | network_0/router_level1_7 |   Requesting VC 1 at output 14 (in_pri: 0, out_pri: 0).
10 | network_0/router_level1_7 |   Requesting VC 2 at output 14 (in_pri: 0, out_pri: 0).
10 | network_0/router_level1_7 |   Requesting VC 3 at output 14 (in_pri: 0, out_pri: 0).
10 | network_0/router_level1_7/vc_allocator | Input requests = [ 0 -> [ 56@0 57@0 58@0 59@0 ]  4 -> [ 48@0 49@0 50@0 51@0 ]  12 -> [ 56@0 57@0 58@0 59@0 ]  20 -> [ 48@0 49@0 50@0 51@0 ]  ], output requests = [ 48 -> [ 4@0 20@0 ]  49 -> [ 4@0 20@0 ]  50 -> [ 4@0 20@0 ]  51 -> [ 4@0 20@0 ]  56 -> [ 0@0 12@0 ]  57 -> [ 0@0 12@0 ]  58 -> [ 0@0 12@0 ]  59 -> [ 0@0 12@0 ]  ].
10 | network_0/router_level1_7/vc_allocator | Input grants = [ 0 -> 56  4 -> 48  ], output grants = [ 48 -> 4  56 -> 0  ].
10 | network_0/router_level1_7 | Assigning VC 0 at output 14 to VC 0 at input 0.
10 | network_0/router_level1_7 | Completed VC allocation for VC 0 at input 0 (front: 6).
10 | network_0/router_level1_7 |   Acquiring assigned VC 0 at output 14.
10 | network_0/router_level1_7/buf_0/vc_0 | Changing state from vc_alloc to active.
10 | network_0/router_level1_20 | Adding flit 3 to VC 0 at input 0 (state: idle, empty).
10 | network_0/router_level1_20 | Using precomputed lookahead routing information for VC 0 at input 0 (front: 3).
10 | network_0/router_level1_20/buf_0/vc_0 | Changing state from idle to vc_alloc.
10 | network_0/router_level1_20 | Beginning VC allocation for VC 0 at input 0 (front: 3).
10 | network_0/router_level1_20 |   Requesting VC 0 at output 3 (in_pri: 0, out_pri: 0).
10 | network_0/router_level1_20 |   Requesting VC 1 at output 3 (in_pri: 0, out_pri: 0).
10 | network_0/router_level1_20 |   Requesting VC 2 at output 3 (in_pri: 0, out_pri: 0).
10 | network_0/router_level1_20 |   Requesting VC 3 at output 3 (in_pri: 0, out_pri: 0).
10 | network_0/router_level1_20/vc_allocator | Input requests = [ 0 -> [ 12@0 13@0 14@0 15@0 ]  12 -> [ 48@0 49@0 50@0 51@0 ]  24 -> [ 60@0 61@0 62@0 63@0 ]  ], output requests = [ 12 -> [ 0@0 ]  13 -> [ 0@0 ]  14 -> [ 0@0 ]  15 -> [ 0@0 ]  48 -> [ 12@0 ]  49 -> [ 12@0 ]  50 -> [ 12@0 ]  51 -> [ 12@0 ]  60 -> [ 24@0 ]  61 -> [ 24@0 ]  62 -> [ 24@0 ]  63 -> [ 24@0 ]  ].
10 | network_0/router_level1_20/vc_allocator | Input grants = [ 0 -> 12  12 -> 48  24 -> 60  ], output grants = [ 12 -> 0  48 -> 12  60 -> 24  ].
10 | network_0/router_level1_20 | Assigning VC 0 at output 3 to VC 0 at input 0.
10 | network_0/router_level1_20 | Completed VC allocation for VC 0 at input 0 (front: 3).
10 | network_0/router_level1_20 |   Acquiring assigned VC 0 at output 3.
10 | network_0/router_level1_20/buf_0/vc_0 | Changing state from vc_alloc to active.
10 | network_0/router_level1_22 | Adding flit 7 to VC 0 at input 0 (state: idle, empty).
10 | network_0/router_level1_22 | Using precomputed lookahead routing information for VC 0 at input 0 (front: 7).
10 | network_0/router_level1_22/buf_0/vc_0 | Changing state from idle to vc_alloc.
10 | network_0/router_level1_22 | Beginning VC allocation for VC 0 at input 0 (front: 7).
10 | network_0/router_level1_22 |   Requesting VC 0 at output 10 (in_pri: 0, out_pri: 0).
10 | network_0/router_level1_22 |   Requesting VC 1 at output 10 (in_pri: 0, out_pri: 0).
10 | network_0/router_level1_22 |   Requesting VC 2 at output 10 (in_pri: 0, out_pri: 0).
10 | network_0/router_level1_22 |   Requesting VC 3 at output 10 (in_pri: 0, out_pri: 0).
10 | network_0/router_level1_22/vc_allocator | Input requests = [ 0 -> [ 40@0 41@0 42@0 43@0 ]  8 -> [ 60@0 61@0 62@0 63@0 ]  12 -> [ 44@0 45@0 46@0 47@0 ]  16 -> [ 40@0 41@0 42@0 43@0 ]  24 -> [ 36@0 37@0 38@0 39@0 ]  28 -> [ 52@0 53@0 54@0 55@0 ]  ], output requests = [ 36 -> [ 24@0 ]  37 -> [ 24@0 ]  38 -> [ 24@0 ]  39 -> [ 24@0 ]  40 -> [ 0@0 16@0 ]  41 -> [ 0@0 16@0 ]  42 -> [ 0@0 16@0 ]  43 -> [ 0@0 16@0 ]  44 -> [ 12@0 ]  45 -> [ 12@0 ]  46 -> [ 12@0 ]  47 -> [ 12@0 ]  52 -> [ 28@0 ]  53 -> [ 28@0 ]  54 -> [ 28@0 ]  55 -> [ 28@0 ]  60 -> [ 8@0 ]  61 -> [ 8@0 ]  62 -> [ 8@0 ]  63 -> [ 8@0 ]  ].
10 | network_0/router_level1_22/vc_allocator | Input grants = [ 0 -> 40  8 -> 60  12 -> 44  24 -> 36  28 -> 52  ], output grants = [ 36 -> 24  40 -> 0  44 -> 12  52 -> 28  60 -> 8  ].
10 | network_0/router_level1_22 | Assigning VC 0 at output 10 to VC 0 at input 0.
10 | network_0/router_level1_22 | Completed VC allocation for VC 0 at input 0 (front: 7).
10 | network_0/router_level1_22 |   Acquiring assigned VC 0 at output 10.
10 | network_0/router_level1_22/buf_0/vc_0 | Changing state from vc_alloc to active.
10 | network_0/router_level1_30 | Adding flit 5 to VC 0 at input 0 (state: idle, empty).
10 | network_0/router_level1_30 | Using precomputed lookahead routing information for VC 0 at input 0 (front: 5).
10 | network_0/router_level1_30/buf_0/vc_0 | Changing state from idle to vc_alloc.
10 | network_0/router_level1_30 | Beginning VC allocation for VC 0 at input 0 (front: 5).
10 | network_0/router_level1_30 |   Requesting VC 0 at output 5 (in_pri: 0, out_pri: 0).
10 | network_0/router_level1_30 |   Requesting VC 1 at output 5 (in_pri: 0, out_pri: 0).
10 | network_0/router_level1_30 |   Requesting VC 2 at output 5 (in_pri: 0, out_pri: 0).
10 | network_0/router_level1_30 |   Requesting VC 3 at output 5 (in_pri: 0, out_pri: 0).
10 | network_0/router_level1_30/vc_allocator | Input requests = [ 0 -> [ 20@0 21@0 22@0 23@0 ]  4 -> [ 8@0 9@0 10@0 11@0 ]  16 -> [ 32@0 33@0 34@0 35@0 ]  20 -> [ 16@0 17@0 18@0 19@0 ]  ], output requests = [ 8 -> [ 4@0 ]  9 -> [ 4@0 ]  10 -> [ 4@0 ]  11 -> [ 4@0 ]  16 -> [ 20@0 ]  17 -> [ 20@0 ]  18 -> [ 20@0 ]  19 -> [ 20@0 ]  20 -> [ 0@0 ]  21 -> [ 0@0 ]  22 -> [ 0@0 ]  23 -> [ 0@0 ]  32 -> [ 16@0 ]  33 -> [ 16@0 ]  34 -> [ 16@0 ]  35 -> [ 16@0 ]  ].
10 | network_0/router_level1_30/vc_allocator | Input grants = [ 0 -> 20  4 -> 8  16 -> 32  20 -> 16  ], output grants = [ 8 -> 4  16 -> 20  20 -> 0  32 -> 16  ].
10 | network_0/router_level1_30 | Assigning VC 0 at output 5 to VC 0 at input 0.
10 | network_0/router_level1_30 | Completed VC allocation for VC 0 at input 0 (front: 5).
10 | network_0/router_level1_30 |   Acquiring assigned VC 0 at output 5.
10 | network_0/router_level1_30/buf_0/vc_0 | Changing state from vc_alloc to active.
10 | network_0/router_level1_42 | Adding flit 10 to VC 0 at input 0 (state: idle, empty).
10 | network_0/router_level1_42 | Using precomputed lookahead routing information for VC 0 at input 0 (front: 10).
10 | network_0/router_level1_42/buf_0/vc_0 | Changing state from idle to vc_alloc.
10 | network_0/router_level1_42 | Beginning VC allocation for VC 0 at input 0 (front: 10).
10 | network_0/router_level1_42 |   Requesting VC 0 at output 11 (in_pri: 0, out_pri: 0).
10 | network_0/router_level1_42 |   Requesting VC 1 at output 11 (in_pri: 0, out_pri: 0).
10 | network_0/router_level1_42 |   Requesting VC 2 at output 11 (in_pri: 0, out_pri: 0).
10 | network_0/router_level1_42 |   Requesting VC 3 at output 11 (in_pri: 0, out_pri: 0).
10 | network_0/router_level1_42/vc_allocator | Input requests = [ 0 -> [ 44@0 45@0 46@0 47@0 ]  4 -> [ 40@0 41@0 42@0 43@0 ]  28 -> [ 4@0 5@0 6@0 7@0 ]  ], output requests = [ 4 -> [ 28@0 ]  5 -> [ 28@0 ]  6 -> [ 28@0 ]  7 -> [ 28@0 ]  40 -> [ 4@0 ]  41 -> [ 4@0 ]  42 -> [ 4@0 ]  43 -> [ 4@0 ]  44 -> [ 0@0 ]  45 -> [ 0@0 ]  46 -> [ 0@0 ]  47 -> [ 0@0 ]  ].
10 | network_0/router_level1_42/vc_allocator | Input grants = [ 0 -> 44  4 -> 40  28 -> 4  ], output grants = [ 4 -> 28  40 -> 4  44 -> 0  ].
10 | network_0/router_level1_42 | Assigning VC 0 at output 11 to VC 0 at input 0.
10 | network_0/router_level1_42 | Completed VC allocation for VC 0 at input 0 (front: 10).
10 | network_0/router_level1_42 |   Acquiring assigned VC 0 at output 11.
10 | network_0/router_level1_42/buf_0/vc_0 | Changing state from vc_alloc to active.
10 | network_0/router_level1_44 | Adding flit 8 to VC 0 at input 0 (state: idle, empty).
10 | network_0/router_level1_44 | Using precomputed lookahead routing information for VC 0 at input 0 (front: 8).
10 | network_0/router_level1_44/buf_0/vc_0 | Changing state from idle to vc_alloc.
10 | network_0/router_level1_44 | Beginning VC allocation for VC 0 at input 0 (front: 8).
10 | network_0/router_level1_44 |   Requesting VC 0 at output 12 (in_pri: 0, out_pri: 0).
10 | network_0/router_level1_44 |   Requesting VC 1 at output 12 (in_pri: 0, out_pri: 0).
10 | network_0/router_level1_44 |   Requesting VC 2 at output 12 (in_pri: 0, out_pri: 0).
10 | network_0/router_level1_44 |   Requesting VC 3 at output 12 (in_pri: 0, out_pri: 0).
10 | network_0/router_level1_44/vc_allocator | Input requests = [ 0 -> [ 48@0 49@0 50@0 51@0 ]  8 -> [ 32@0 33@0 34@0 35@0 ]  12 -> [ 32@0 33@0 34@0 35@0 ]  20 -> [ 60@0 61@0 62@0 63@0 ]  ], output requests = [ 32 -> [ 8@0 12@0 ]  33 -> [ 8@0 12@0 ]  34 -> [ 8@0 12@0 ]  35 -> [ 8@0 12@0 ]  48 -> [ 0@0 ]  49 -> [ 0@0 ]  50 -> [ 0@0 ]  51 -> [ 0@0 ]  60 -> [ 20@0 ]  61 -> [ 20@0 ]  62 -> [ 20@0 ]  63 -> [ 20@0 ]  ].
10 | network_0/router_level1_44/vc_allocator | Input grants = [ 0 -> 48  8 -> 32  20 -> 60  ], output grants = [ 32 -> 8  48 -> 0  60 -> 20  ].
10 | network_0/router_level1_44 | Assigning VC 0 at output 12 to VC 0 at input 0.
10 | network_0/router_level1_44 | Completed VC allocation for VC 0 at input 0 (front: 8).
10 | network_0/router_level1_44 |   Acquiring assigned VC 0 at output 12.
10 | network_0/router_level1_44/buf_0/vc_0 | Changing state from vc_alloc to active.
10 | network_0/router_level1_48 | Adding flit 2 to VC 0 at input 0 (state: idle, empty).
10 | network_0/router_level1_48 | Using precomputed lookahead routing information for VC 0 at input 0 (front: 2).
10 | network_0/router_level1_48/buf_0/vc_0 | Changing state from idle to vc_alloc.
10 | network_0/router_level1_48 | Beginning VC allocation for VC 0 at input 0 (front: 2).
10 | network_0/router_level1_48 |   Requesting VC 0 at output 2 (in_pri: 0, out_pri: 0).
10 | network_0/router_level1_48 |   Requesting VC 1 at output 2 (in_pri: 0, out_pri: 0).
10 | network_0/router_level1_48 |   Requesting VC 2 at output 2 (in_pri: 0, out_pri: 0).
10 | network_0/router_level1_48 |   Requesting VC 3 at output 2 (in_pri: 0, out_pri: 0).
10 | network_0/router_level1_48/vc_allocator | Input requests = [ 0 -> [ 8@0 9@0 10@0 11@0 ]  8 -> [ 60@0 61@0 62@0 63@0 ]  16 -> [ 20@0 21@0 22@0 23@0 ]  20 -> [ 48@0 49@0 50@0 51@0 ]  24 -> [ 8@0 9@0 10@0 11@0 ]  ], output requests = [ 8 -> [ 0@0 24@0 ]  9 -> [ 0@0 24@0 ]  10 -> [ 0@0 24@0 ]  11 -> [ 0@0 24@0 ]  20 -> [ 16@0 ]  21 -> [ 16@0 ]  22 -> [ 16@0 ]  23 -> [ 16@0 ]  48 -> [ 20@0 ]  49 -> [ 20@0 ]  50 -> [ 20@0 ]  51 -> [ 20@0 ]  60 -> [ 8@0 ]  61 -> [ 8@0 ]  62 -> [ 8@0 ]  63 -> [ 8@0 ]  ].
10 | network_0/router_level1_48/vc_allocator | Input grants = [ 0 -> 8  8 -> 60  16 -> 20  20 -> 48  ], output grants = [ 8 -> 0  20 -> 16  48 -> 20  60 -> 8  ].
10 | network_0/router_level1_48 | Assigning VC 0 at output 2 to VC 0 at input 0.
10 | network_0/router_level1_48 | Completed VC allocation for VC 0 at input 0 (front: 2).
10 | network_0/router_level1_48 |   Acquiring assigned VC 0 at output 2.
10 | network_0/router_level1_48/buf_0/vc_0 | Changing state from vc_alloc to active.
10 | network_0/router_level1_49 | Adding flit 1 to VC 0 at input 0 (state: idle, empty).
10 | network_0/router_level1_49 | Using precomputed lookahead routing information for VC 0 at input 0 (front: 1).
10 | network_0/router_level1_49/buf_0/vc_0 | Changing state from idle to vc_alloc.
10 | network_0/router_level1_49 | Beginning VC allocation for VC 0 at input 0 (front: 1).
10 | network_0/router_level1_49 |   Requesting VC 0 at output 1 (in_pri: 0, out_pri: 0).
10 | network_0/router_level1_49 |   Requesting VC 1 at output 1 (in_pri: 0, out_pri: 0).
10 | network_0/router_level1_49 |   Requesting VC 2 at output 1 (in_pri: 0, out_pri: 0).
10 | network_0/router_level1_49 |   Requesting VC 3 at output 1 (in_pri: 0, out_pri: 0).
10 | network_0/router_level1_49/vc_allocator | Input requests = [ 0 -> [ 4@0 5@0 6@0 7@0 ]  4 -> [ 32@0 33@0 34@0 35@0 ]  8 -> [ 60@0 61@0 62@0 63@0 ]  20 -> [ 4@0 5@0 6@0 7@0 ]  28 -> [ 12@0 13@0 14@0 15@0 ]  ], output requests = [ 4 -> [ 0@0 20@0 ]  5 -> [ 0@0 20@0 ]  6 -> [ 0@0 20@0 ]  7 -> [ 0@0 20@0 ]  12 -> [ 28@0 ]  13 -> [ 28@0 ]  14 -> [ 28@0 ]  15 -> [ 28@0 ]  32 -> [ 4@0 ]  33 -> [ 4@0 ]  34 -> [ 4@0 ]  35 -> [ 4@0 ]  60 -> [ 8@0 ]  61 -> [ 8@0 ]  62 -> [ 8@0 ]  63 -> [ 8@0 ]  ].
10 | network_0/router_level1_49/vc_allocator | Input grants = [ 0 -> 4  4 -> 32  8 -> 60  28 -> 12  ], output grants = [ 4 -> 0  12 -> 28  32 -> 4  60 -> 8  ].
10 | network_0/router_level1_49 | Assigning VC 0 at output 1 to VC 0 at input 0.
10 | network_0/router_level1_49 | Completed VC allocation for VC 0 at input 0 (front: 1).
10 | network_0/router_level1_49 |   Acquiring assigned VC 0 at output 1.
10 | network_0/router_level1_49/buf_0/vc_0 | Changing state from vc_alloc to active.
10 | network_0/network_0_fchan_12341 | Completed channel traversal for flit 9.
11 | network_0/router_level1_46 | Received flit 9 from channel at input 0.
11 | network_0/router_level1_2 | Beginning switch allocation for VC 0 at input 0 (front: 4).
11 | network_0/router_level1_2 |   Requesting output 4.0 (non-spec, pri: 0).
11 | network_0/router_level1_2/sw_allocator | Input requests = [ 0 -> [ 4@0 ]  1 -> [ 3@0 ]  ], output requests = [ 3 -> [ 1@0 ]  4 -> [ 0@0 ]  ].
11 | network_0/router_level1_2/sw_allocator | Input grants = [ 0 -> 4  1 -> 3  ], output grants = [ 3 -> 1  4 -> 0  ].
11 | network_0/router_level1_2 | Assigning output 4.0 to VC 0 at input 0.0.
11 | network_0/router_level1_2 | Completed switch allocation for VC 0 at input 0 (front: 4).
11 | network_0/router_level1_2 |   Scheduling switch connection from input 0.0 to output 4.0.
11 | network_0/router_level1_2 | Updating lookahead routing information for flit 4.
11 | network_0/router_level1_7 | Beginning switch allocation for VC 0 at input 0 (front: 6).
11 | network_0/router_level1_7 |   Requesting output 14.0 (non-spec, pri: 0).
11 | network_0/router_level1_7/sw_allocator | Input requests = [ 0 -> [ 14@0 ]  1 -> [ 12@0 ]  ], output requests = [ 12 -> [ 1@0 ]  14 -> [ 0@0 ]  ].
11 | network_0/router_level1_7/sw_allocator | Input grants = [ 0 -> 14  1 -> 12  ], output grants = [ 12 -> 1  14 -> 0  ].
11 | network_0/router_level1_7 | Assigning output 14.0 to VC 0 at input 0.0.
11 | network_0/router_level1_7 | Completed switch allocation for VC 0 at input 0 (front: 6).
11 | network_0/router_level1_7 |   Scheduling switch connection from input 0.0 to output 14.0.
11 | network_0/router_level1_7 | Updating lookahead routing information for flit 6.
11 | network_0/router_level1_20 | Beginning switch allocation for VC 0 at input 0 (front: 3).
11 | network_0/router_level1_20 |   Requesting output 3.0 (non-spec, pri: 0).
11 | network_0/router_level1_20/sw_allocator | Input requests = [ 0 -> [ 3@0 ]  3 -> [ 12@0 ]  6 -> [ 15@0 ]  ], output requests = [ 3 -> [ 0@0 ]  12 -> [ 3@0 ]  15 -> [ 6@0 ]  ].
11 | network_0/router_level1_20/sw_allocator | Input grants = [ 0 -> 3  3 -> 12  6 -> 15  ], output grants = [ 3 -> 0  12 -> 3  15 -> 6  ].
11 | network_0/router_level1_20 | Assigning output 3.0 to VC 0 at input 0.0.
11 | network_0/router_level1_20 | Completed switch allocation for VC 0 at input 0 (front: 3).
11 | network_0/router_level1_20 |   Scheduling switch connection from input 0.0 to output 3.0.
11 | network_0/router_level1_20 | Updating lookahead routing information for flit 3.
11 | network_0/router_level1_22 | Beginning switch allocation for VC 0 at input 0 (front: 7).
11 | network_0/router_level1_22 |   Requesting output 10.0 (non-spec, pri: 0).
[...]
26 | network_0/router_level3_80 | Assigning VC 0 at output 0 to VC 0 at input 12.
26 | network_0/router_level3_80 | Completed VC allocation for VC 0 at input 12 (front: 8).
26 | network_0/router_level3_80 |   Acquiring assigned VC 0 at output 0.
26 | network_0/router_level3_80/buf_12/vc_0 | Changing state from vc_alloc to active.
26 | network_0/router_level3_96 | Adding flit 10 to VC 0 at input 10 (state: idle, empty).
26 | network_0/router_level3_96 | Using precomputed lookahead routing information for VC 0 at input 10 (front: 10).
26 | network_0/router_level3_96/buf_10/vc_0 | Changing state from idle to vc_alloc.
26 | network_0/router_level3_96 | Beginning VC allocation for VC 0 at input 10 (front: 10).
26 | network_0/router_level3_96 |   Requesting VC 0 at output 0 (in_pri: 0, out_pri: 0).
26 | network_0/router_level3_96 |   Requesting VC 1 at output 0 (in_pri: 0, out_pri: 0).
26 | network_0/router_level3_96 |   Requesting VC 2 at output 0 (in_pri: 0, out_pri: 0).
26 | network_0/router_level3_96 |   Requesting VC 3 at output 0 (in_pri: 0, out_pri: 0).
26 | network_0/router_level3_96/vc_allocator | Input requests = [ 11 -> [ 52@0 54@0 55@0 ]  14 -> [ 61@0 ]  15 -> [ 33@0 35@0 ]  19 -> [ 56@0 59@0 ]  22 -> [ 61@0 ]  26 -> [ 37@0 38@0 39@0 ]  28 -> [ 51@0 ]  40 -> [ 0@0 1@0 2@0 3@0 ]  52 -> [ 24@0 25@0 26@0 27@0 ]  60 -> [ 28@0 29@0 30@0 31@0 ]  ], output requests = [ 0 -> [ 40@0 ]  1 -> [ 40@0 ]  2 -> [ 40@0 ]  3 -> [ 40@0 ]  24 -> [ 52@0 ]  25 -> [ 52@0 ]  26 -> [ 52@0 ]  27 -> [ 52@0 ]  28 -> [ 60@0 ]  29 -> [ 60@0 ]  30 -> [ 60@0 ]  31 -> [ 60@0 ]  33 -> [ 15@0 ]  35 -> [ 15@0 ]  37 -> [ 26@0 ]  38 -> [ 26@0 ]  39 -> [ 26@0 ]  51 -> [ 28@0 ]  52 -> [ 11@0 ]  54 -> [ 11@0 ]  55 -> [ 11@0 ]  56 -> [ 19@0 ]  59 -> [ 19@0 ]  61 -> [ 14@0 22@0 ]  ].
26 | network_0/router_level3_96/vc_allocator | Input grants = [ 11 -> 52  14 -> 61  15 -> 33  19 -> 56  26 -> 37  28 -> 51  40 -> 0  52 -> 24  60 -> 28  ], output grants = [ 0 -> 40  24 -> 52  28 -> 60  33 -> 15  37 -> 26  51 -> 28  52 -> 11  56 -> 19  61 -> 14  ].
26 | network_0/router_level3_96 | Assigning VC 0 at output 0 to VC 0 at input 10.
26 | network_0/router_level3_96 | Completed VC allocation for VC 0 at input 10 (front: 10).
26 | network_0/router_level3_96 |   Acquiring assigned VC 0 at output 0.
26 | network_0/router_level3_96/buf_10/vc_0 | Changing state from vc_alloc to active.
26 | network_0/network_0_fchan_17136 | Completed channel traversal for flit 9.
26 | network_0/router_level2_71 | Sending flit 6 to channel at output 0.
27 | network_0/network_0_fchan_16952 | Beginning channel traversal for flit 6 with delay 1.
27 | network_0/router_level3_88 | Received flit 9 from channel at input 14.
27 | network_0/router_level3_72 | Beginning switch allocation for VC 0 at input 14 (front: 7).
27 | network_0/router_level3_72 |   Requesting output 0.0 (non-spec, pri: 0).
27 | network_0/router_level3_72/sw_allocator | Input requests = [ 0 -> [ 9@0 14@0 15@0 ]  1 -> [ 10@0 15@0 ]  2 -> [ 10@0 13@0 ]  3 -> [ 8@0 12@0 ]  4 -> [ 11@0 ]  5 -> [ 10@0 11@0 12@0 ]  6 -> [ 8@0 14@0 ]  7 -> [ 8@0 ]  8 -> [ 4@0 ]  11 -> [ 2@0 ]  14 -> [ 0@0 ]  ], output requests = [ 0 -> [ 14@0 ]  2 -> [ 11@0 ]  4 -> [ 8@0 ]  8 -> [ 3@0 6@0 7@0 ]  9 -> [ 0@0 ]  10 -> [ 1@0 2@0 5@0 ]  11 -> [ 4@0 5@0 ]  12 -> [ 3@0 5@0 ]  13 -> [ 2@0 ]  14 -> [ 0@0 6@0 ]  15 -> [ 0@0 1@0 ]  ].
27 | network_0/router_level3_72/sw_allocator | Input grants = [ 1 -> 10  3 -> 12  4 -> 11  6 -> 14  7 -> 8  8 -> 4  11 -> 2  14 -> 0  ], output grants = [ 0 -> 14  2 -> 11  4 -> 8  8 -> 7  10 -> 1  11 -> 4  12 -> 3  14 -> 6  ].
27 | network_0/router_level3_72 | Assigning output 0.0 to VC 0 at input 14.0.
27 | network_0/router_level3_72 | Completed switch allocation for VC 0 at input 14 (front: 7).
27 | network_0/router_level3_72 |   Scheduling switch connection from input 14.0 to output 0.0.
27 | network_0/router_level3_80 | Beginning switch allocation for VC 0 at input 12 (front: 8).
27 | network_0/router_level3_80 |   Requesting output 0.0 (non-spec, pri: 0).
27 | network_0/router_level3_80/sw_allocator | Input requests = [ 0 -> [ 13@0 ]  1 -> [ 10@0 14@0 ]  2 -> [ 14@0 15@0 ]  3 -> [ 8@0 9@0 ]  4 -> [ 9@0 10@0 11@0 ]  5 -> [ 9@0 ]  6 -> [ 14@0 ]  7 -> [ 11@0 12@0 ]  8 -> [ 7@0 ]  12 -> [ 0@0 ]  ], output requests = [ 0 -> [ 12@0 ]  7 -> [ 8@0 ]  8 -> [ 3@0 ]  9 -> [ 3@0 4@0 5@0 ]  10 -> [ 1@0 4@0 ]  11 -> [ 4@0 7@0 ]  12 -> [ 7@0 ]  13 -> [ 0@0 ]  14 -> [ 1@0 2@0 6@0 ]  15 -> [ 2@0 ]  ].
27 | network_0/router_level3_80/sw_allocator | Input grants = [ 0 -> 13  1 -> 10  3 -> 8  5 -> 9  6 -> 14  7 -> 12  8 -> 7  12 -> 0  ], output grants = [ 0 -> 12  7 -> 8  8 -> 3  9 -> 5  10 -> 1  12 -> 7  13 -> 0  14 -> 6  ].
27 | network_0/router_level3_80 | Assigning output 0.0 to VC 0 at input 12.0.
27 | network_0/router_level3_80 | Completed switch allocation for VC 0 at input 12 (front: 8).
27 | network_0/router_level3_80 |   Scheduling switch connection from input 12.0 to output 0.0.
27 | network_0/router_level3_88 | Adding flit 9 to VC 0 at input 14 (state: idle, empty).
27 | network_0/router_level3_88 | Using precomputed lookahead routing information for VC 0 at input 14 (front: 9).
27 | network_0/router_level3_88/buf_14/vc_0 | Changing state from idle to vc_alloc.
27 | network_0/router_level3_88 | Beginning VC allocation for VC 0 at input 14 (front: 9).
27 | network_0/router_level3_88 |   Requesting VC 0 at output 0 (in_pri: 0, out_pri: 0).
27 | network_0/router_level3_88 |   Requesting VC 1 at output 0 (in_pri: 0, out_pri: 0).
27 | network_0/router_level3_88 |   Requesting VC 2 at output 0 (in_pri: 0, out_pri: 0).
27 | network_0/router_level3_88 |   Requesting VC 3 at output 0 (in_pri: 0, out_pri: 0).
27 | network_0/router_level3_88/vc_allocator | Input requests = [ 1 -> [ 32@0 34@0 35@0 ]  8 -> [ 37@0 39@0 ]  10 -> [ 62@0 63@0 ]  11 -> [ 37@0 39@0 ]  15 -> [ 32@0 34@0 35@0 ]  20 -> [ 45@0 46@0 47@0 ]  23 -> [ 45@0 46@0 47@0 ]  25 -> [ 49@0 ]  27 -> [ 32@0 34@0 35@0 ]  30 -> [ 59@0 ]  31 -> [ 32@0 34@0 35@0 ]  36 -> [ 4@0 5@0 6@0 7@0 ]  48 -> [ 24@0 25@0 26@0 27@0 ]  56 -> [ 0@0 1@0 2@0 3@0 ]  ], output requests = [ 0 -> [ 56@0 ]  1 -> [ 56@0 ]  2 -> [ 56@0 ]  3 -> [ 56@0 ]  4 -> [ 36@0 ]  5 -> [ 36@0 ]  6 -> [ 36@0 ]  7 -> [ 36@0 ]  24 -> [ 48@0 ]  25 -> [ 48@0 ]  26 -> [ 48@0 ]  27 -> [ 48@0 ]  32 -> [ 1@0 15@0 27@0 31@0 ]  34 -> [ 1@0 15@0 27@0 31@0 ]  35 -> [ 1@0 15@0 27@0 31@0 ]  37 -> [ 8@0 11@0 ]  39 -> [ 8@0 11@0 ]  45 -> [ 20@0 23@0 ]  46 -> [ 20@0 23@0 ]  47 -> [ 20@0 23@0 ]  49 -> [ 25@0 ]  59 -> [ 30@0 ]  62 -> [ 10@0 ]  63 -> [ 10@0 ]  ].
27 | network_0/router_level3_88/vc_allocator | Input grants = [ 8 -> 37  10 -> 62  20 -> 45  25 -> 49  27 -> 32  30 -> 59  36 -> 4  48 -> 24  56 -> 0  ], output grants = [ 0 -> 56  4 -> 36  24 -> 48  32 -> 27  37 -> 8  45 -> 20  49 -> 25  59 -> 30  62 -> 10  ].
27 | network_0/router_level3_88 | Assigning VC 0 at output 0 to VC 0 at input 14.
27 | network_0/router_level3_88 | Completed VC allocation for VC 0 at input 14 (front: 9).
27 | network_0/router_level3_88 |   Acquiring assigned VC 0 at output 0.
27 | network_0/router_level3_88/buf_14/vc_0 | Changing state from vc_alloc to active.
27 | network_0/router_level3_96 | Beginning switch allocation for VC 0 at input 10 (front: 10).
27 | network_0/router_level3_96 |   Requesting output 0.0 (non-spec, pri: 0).
27 | network_0/router_level3_96/sw_allocator | Input requests = [ 0 -> [ 10@0 11@0 ]  2 -> [ 13@0 ]  3 -> [ 8@0 15@0 ]  4 -> [ 10@0 14@0 15@0 ]  5 -> [ 8@0 11@0 14@0 ]  6 -> [ 9@0 10@0 15@0 ]  7 -> [ 9@0 12@0 ]  10 -> [ 0@0 ]  13 -> [ 6@0 ]  15 -> [ 7@0 ]  ], output requests = [ 0 -> [ 10@0 ]  6 -> [ 13@0 ]  7 -> [ 15@0 ]  8 -> [ 3@0 5@0 ]  9 -> [ 6@0 7@0 ]  10 -> [ 0@0 4@0 6@0 ]  11 -> [ 0@0 5@0 ]  12 -> [ 7@0 ]  13 -> [ 2@0 ]  14 -> [ 4@0 5@0 ]  15 -> [ 3@0 4@0 6@0 ]  ].
27 | network_0/router_level3_96/sw_allocator | Input grants = [ 0 -> 10  2 -> 13  3 -> 15  5 -> 14  7 -> 12  10 -> 0  13 -> 6  15 -> 7  ], output grants = [ 0 -> 10  6 -> 13  7 -> 15  10 -> 0  12 -> 7  13 -> 2  14 -> 5  15 -> 3  ].
27 | network_0/router_level3_96 | Assigning output 0.0 to VC 0 at input 10.0.
27 | network_0/router_level3_96 | Completed switch allocation for VC 0 at input 10 (front: 10).
27 | network_0/router_level3_96 |   Scheduling switch connection from input 10.0 to output 0.0.
27 | network_0/network_0_fchan_16952 | Completed channel traversal for flit 6.
28 | network_0/router_level3_64 | Received flit 6 from channel at input 15.
28 | network_0/router_level3_64 | Adding flit 6 to VC 1 at input 15 (state: idle, empty).
28 | network_0/router_level3_64 | Using precomputed lookahead routing information for VC 1 at input 15 (front: 6).
28 | network_0/router_level3_64/buf_15/vc_1 | Changing state from idle to vc_alloc.
28 | network_0/router_level3_64 | Beginning VC allocation for VC 1 at input 15 (front: 6).
28 | network_0/router_level3_64 |   VC 0 at output 0 is in use by VC 0 at input 15 (front flit: 3285).
28 | network_0/router_level3_64 |   Requesting VC 1 at output 0 (in_pri: 0, out_pri: 0).
28 | network_0/router_level3_64 |   Requesting VC 2 at output 0 (in_pri: 0, out_pri: 0).
28 | network_0/router_level3_64 |   Requesting VC 3 at output 0 (in_pri: 0, out_pri: 0).
28 | network_0/router_level3_64/vc_allocator | Input requests = [ 3 -> [ 57@0 58@0 59@0 ]  4 -> [ 63@0 ]  5 -> [ 63@0 ]  6 -> [ 36@0 ]  10 -> [ 41@0 43@0 ]  12 -> [ 36@0 ]  16 -> [ 57@0 58@0 59@0 ]  21 -> [ 63@0 ]  25 -> [ 41@0 43@0 ]  26 -> [ 52@0 53@0 55@0 ]  29 -> [ 35@0 ]  30 -> [ 41@0 43@0 ]  31 -> [ 57@0 58@0 59@0 ]  36 -> [ 20@0 21@0 22@0 23@0 ]  41 -> [ 20@0 21@0 22@0 23@0 ]  52 -> [ 13@0 14@0 15@0 ]  61 -> [ 1@0 2@0 3@0 ]  ], output requests = [ 1 -> [ 61@0 ]  2 -> [ 61@0 ]  3 -> [ 61@0 ]  13 -> [ 52@0 ]  14 -> [ 52@0 ]  15 -> [ 52@0 ]  20 -> [ 36@0 41@0 ]  21 -> [ 36@0 41@0 ]  22 -> [ 36@0 41@0 ]  23 -> [ 36@0 41@0 ]  35 -> [ 29@0 ]  36 -> [ 6@0 12@0 ]  41 -> [ 10@0 25@0 30@0 ]  43 -> [ 10@0 25@0 30@0 ]  52 -> [ 26@0 ]  53 -> [ 26@0 ]  55 -> [ 26@0 ]  57 -> [ 3@0 16@0 31@0 ]  58 -> [ 3@0 16@0 31@0 ]  59 -> [ 3@0 16@0 31@0 ]  63 -> [ 4@0 5@0 21@0 ]  ].
28 | network_0/router_level3_64/vc_allocator | Input grants = [ 6 -> 36  16 -> 57  21 -> 63  26 -> 53  29 -> 35  30 -> 41  36 -> 20  52 -> 13  61 -> 1  ], output grants = [ 1 -> 61  13 -> 52  20 -> 36  35 -> 29  36 -> 6  41 -> 30  53 -> 26  57 -> 16  63 -> 21  ].
28 | network_0/router_level3_64 | Assigning VC 1 at output 0 to VC 1 at input 15.
28 | network_0/router_level3_64 | Completed VC allocation for VC 1 at input 15 (front: 6).
28 | network_0/router_level3_64 |   Acquiring assigned VC 1 at output 0.
28 | network_0/router_level3_64/buf_15/vc_1 | Changing state from vc_alloc to active.
28 | network_0/router_level3_72 | Beginning crossbar traversal for flit 7 from input 14.0 to output 0.0.
28 | network_0/router_level3_72 | Completed crossbar traversal for flit 7 from input 14.0 to output 0.0.
28 | network_0/router_level3_72 | Buffering flit 7 at output 0.
28 | network_0/router_level3_80 | Beginning crossbar traversal for flit 8 from input 12.0 to output 0.0.
28 | network_0/router_level3_80 | Completed crossbar traversal for flit 8 from input 12.0 to output 0.0.
28 | network_0/router_level3_80 | Buffering flit 8 at output 0.
28 | network_0/router_level3_88 | Beginning switch allocation for VC 0 at input 14 (front: 9).
28 | network_0/router_level3_88 |   Requesting output 0.0 (non-spec, pri: 0).
28 | network_0/router_level3_88/sw_allocator | Input requests = [ 0 -> [ 12@0 ]  1 -> [ 12@0 ]  2 -> [ 9@0 15@0 ]  3 -> [ 15@0 ]  4 -> [ 10@0 14@0 ]  5 -> [ 11@0 13@0 ]  6 -> [ 8@0 10@0 12@0 14@0 ]  7 -> [ 9@0 14@0 ]  9 -> [ 1@0 ]  12 -> [ 6@0 ]  14 -> [ 0@0 ]  ], output requests = [ 0 -> [ 14@0 ]  1 -> [ 9@0 ]  6 -> [ 12@0 ]  8 -> [ 6@0 ]  9 -> [ 2@0 7@0 ]  10 -> [ 4@0 6@0 ]  11 -> [ 5@0 ]  12 -> [ 0@0 1@0 6@0 ]  13 -> [ 5@0 ]  14 -> [ 4@0 6@0 7@0 ]  15 -> [ 2@0 3@0 ]  ].
28 | network_0/router_level3_88/sw_allocator | Input grants = [ 0 -> 12  2 -> 9  3 -> 15  5 -> 11  6 -> 14  9 -> 1  12 -> 6  14 -> 0  ], output grants = [ 0 -> 14  1 -> 9  6 -> 12  9 -> 2  11 -> 5  12 -> 0  14 -> 6  15 -> 3  ].
28 | network_0/router_level3_88 | Assigning output 0.0 to VC 0 at input 14.0.
28 | network_0/router_level3_88 | Completed switch allocation for VC 0 at input 14 (front: 9).
28 | network_0/router_level3_88 |   Scheduling switch connection from input 14.0 to output 0.0.
28 | network_0/router_level3_96 | Beginning crossbar traversal for flit 10 from input 10.0 to output 0.0.
28 | network_0/router_level3_96 | Completed crossbar traversal for flit 10 from input 10.0 to output 0.0.
28 | network_0/router_level3_96 | Buffering flit 10 at output 0.
28 | network_0/router_level3_72 | Sending flit 7 to channel at output 0.
28 | network_0/router_level3_80 | Sending flit 8 to channel at output 0.
28 | network_0/router_level3_96 | Sending flit 10 to channel at output 0.
29 | network_0/network_0_fchan_egress576 | Beginning channel traversal for flit 7 with delay 1.
29 | network_0/network_0_fchan_egress640 | Beginning channel traversal for flit 8 with delay 1.
29 | network_0/network_0_fchan_egress768 | Beginning channel traversal for flit 10 with delay 1.
29 | network_0/router_level3_64 | Beginning switch allocation for VC 1 at input 15 (front: 6).
29 | network_0/router_level3_64 |   Requesting output 0.0 (non-spec, pri: 0).
29 | network_0/router_level3_64/sw_allocator | Input requests = [ 0 -> [ 8@0 9@0 ]  1 -> [ 9@0 ]  2 -> [ 15@0 ]  4 -> [ 8@0 14@0 15@0 ]  5 -> [ 10@0 11@0 15@0 ]  6 -> [ 9@0 13@0 ]  7 -> [ 8@0 10@0 ]  9 -> [ 5@0 ]  13 -> [ 3@0 ]  15 -> [ 0@0 ]  ], output requests = [ 0 -> [ 15@0 ]  3 -> [ 13@0 ]  5 -> [ 9@0 ]  8 -> [ 0@0 4@0 7@0 ]  9 -> [ 0@0 1@0 6@0 ]  10 -> [ 5@0 7@0 ]  11 -> [ 5@0 ]  13 -> [ 6@0 ]  14 -> [ 4@0 ]  15 -> [ 2@0 4@0 5@0 ]  ].
29 | network_0/router_level3_64/sw_allocator | Input grants = [ 2 -> 15  4 -> 14  5 -> 10  6 -> 9  7 -> 8  9 -> 5  13 -> 3  15 -> 0  ], output grants = [ 0 -> 15  3 -> 13  5 -> 9  8 -> 7  9 -> 6  10 -> 5  14 -> 4  15 -> 2  ].
29 | network_0/router_level3_64 | Assigning output 0.0 to VC 1 at input 15.0.
29 | network_0/router_level3_64 | Completed switch allocation for VC 1 at input 15 (front: 6).
29 | network_0/router_level3_64 |   Scheduling switch connection from input 15.0 to output 0.0.
29 | network_0/router_level3_88 | Beginning crossbar traversal for flit 9 from input 14.0 to output 0.0.
29 | network_0/router_level3_88 | Completed crossbar traversal for flit 9 from input 14.0 to output 0.0.
29 | network_0/router_level3_88 | Buffering flit 9 at output 0.
29 | network_0/network_0_fchan_egress576 | Completed channel traversal for flit 7.
29 | network_0/network_0_fchan_egress640 | Completed channel traversal for flit 8.
29 | network_0/network_0_fchan_egress768 | Completed channel traversal for flit 10.
29 | network_0/router_level3_88 | Sending flit 9 to channel at output 0.
30 | node576 | Ejecting flit 7 (packet 7) from VC 0.
30 | node640 | Ejecting flit 8 (packet 8) from VC 0.
30 | node768 | Ejecting flit 10 (packet 10) from VC 0.
30 | network_0/network_0_fchan_egress704 | Beginning channel traversal for flit 9 with delay 1.
30 | node576 | Injecting credit for VC 0 into subnet 0.
30 | node576 | Retiring flit 7 (packet 7, src = 9, dest = 576, hops = 7, flat = 30).
30 | node576 | Retiring packet 7 (plat = 30, nlat = 30, frag = 0, src = 9, dest = 576).
30 | node640 | Injecting credit for VC 0 into subnet 0.
30 | node640 | Retiring flit 8 (packet 8, src = 10, dest = 640, hops = 7, flat = 30).
30 | node640 | Retiring packet 8 (plat = 30, nlat = 30, frag = 0, src = 10, dest = 640).
30 | node768 | Injecting credit for VC 0 into subnet 0.
30 | node768 | Retiring flit 10 (packet 10, src = 12, dest = 768, hops = 7, flat = 30).
30 | node768 | Retiring packet 10 (plat = 30, nlat = 30, frag = 0, src = 12, dest = 768).
30 | network_0/router_level3_64 | Beginning crossbar traversal for flit 6 from input 15.0 to output 0.0.
30 | network_0/router_level3_64 | Completed crossbar traversal for flit 6 from input 15.0 to output 0.0.
30 | network_0/router_level3_64 | Buffering flit 6 at output 0.
30 | network_0/network_0_fchan_egress704 | Completed channel traversal for flit 9.
30 | network_0/router_level3_64 | Sending flit 6 to channel at output 0.
31 | node704 | Ejecting flit 9 (packet 9) from VC 0.
31 | network_0/network_0_fchan_egress512 | Beginning channel traversal for flit 6 with delay 1.
31 | node704 | Injecting credit for VC 0 into subnet 0.
31 | node704 | Retiring flit 9 (packet 9, src = 11, dest = 704, hops = 7, flat = 31).
31 | node704 | Retiring packet 9 (plat = 31, nlat = 31, frag = 0, src = 11, dest = 704).
31 | network_0/network_0_fchan_egress512 | Completed channel traversal for flit 6.
32 | node512 | Ejecting flit 6 (packet 6) from VC 1.
32 | node512 | Injecting credit for VC 1 into subnet 0.
32 | node512 | Retiring flit 6 (packet 6, src = 8, dest = 512, hops = 7, flat = 32).
32 | node512 | Retiring packet 6 (plat = 32, nlat = 32, frag = 0, src = 8, dest = 512).
Class 0:
Packet latency average = 149.015
	minimum = 6
	maximum = 470
Network latency average = 142.259
	minimum = 6
	maximum = 460
Slowest packet = 1596339
Flit latency average = 142.259
	minimum = 6
	maximum = 460
Slowest flit = 1596339
Fragmentation average = 0
	minimum = 0
	maximum = 0
Injected packet rate average = 0.744807
	minimum = 0.67 (at node 3000)
	maximum = 0.831 (at node 2925)
Accepted packet rate average = 0.603151
	minimum = 0.534 (at node 10)
	maximum = 0.825 (at node 2925)
Injected flit rate average = 0.744807
	minimum = 0.67 (at node 3000)
	maximum = 0.831 (at node 2925)
Accepted flit rate average= 0.603151
	minimum = 0.534 (at node 10)
	maximum = 0.825 (at node 2925)
Injected packet length average = 1
Accepted packet length average = 1
Total in-flight flits = 581426 (0 measured)
latency change    = 1
throughput change = 1
Class 0:
Packet latency average = 245.231
	minimum = 6
	maximum = 685
Network latency average = 186.062
	minimum = 6
	maximum = 568
Slowest packet = 1879886
Flit latency average = 186.062
	minimum = 6
	maximum = 568
Slowest flit = 2942032
Fragmentation average = 0
	minimum = 0
	maximum = 0
Injected packet rate average = 0.712379
	minimum = 0.659 (at node 235)
	maximum = 0.818 (at node 1820)
Accepted packet rate average = 0.630258
	minimum = 0.5835 (at node 1953)
	maximum = 0.815 (at node 1820)
Injected flit rate average = 0.712379
	minimum = 0.659 (at node 235)
	maximum = 0.818 (at node 1820)
Accepted flit rate average= 0.630258
	minimum = 0.5835 (at node 1953)
	maximum = 0.815 (at node 1820)
Injected packet length average = 1
Accepted packet length average = 1
Total in-flight flits = 674052 (0 measured)
latency change    = 0.392351
throughput change = 0.04301
Class 0:
Packet latency average = 505.374
	minimum = 6
	maximum = 984
Network latency average = 251.706
	minimum = 6
	maximum = 588
Slowest packet = 5100953
Flit latency average = 251.706
	minimum = 6
	maximum = 588
Slowest flit = 4956669
Fragmentation average = 0
	minimum = 0
	maximum = 0
Injected packet rate average = 0.676334
	minimum = 0.558 (at node 2089)
	maximum = 0.826 (at node 2210)
Accepted packet rate average = 0.664602
	minimum = 0.57 (at node 1525)
	maximum = 0.826 (at node 2210)
Injected flit rate average = 0.676334
	minimum = 0.558 (at node 2089)
	maximum = 0.826 (at node 2210)
Accepted flit rate average= 0.664602
	minimum = 0.57 (at node 1525)
	maximum = 0.826 (at node 2210)
Injected packet length average = 1
Accepted packet length average = 1
Total in-flight flits = 722115 (0 measured)
latency change    = 0.514752
throughput change = 0.0516764
Average latency for class 0 exceeded 500 cycles. Aborting simulation.
Too many sample periods needed to converge
Simulation unstable, ending ...
Total run time 807.818
