BEGIN Configuration File: examples/fattree_config_0.70_1_transpose
// $Id: dragonflyconfig 3555 2011-05-16 23:37:55Z dub $

// Copyright (c) 2007-2015, Trustees of The Leland Stanford Junior University
// All rights reserved.
//
// Redistribution and use in source and binary forms, with or without
// modification, are permitted provided that the following conditions are met:
//
// Redistributions of source code must retain the above copyright notice, this
// list of conditions and the following disclaimer.
// Redistributions in binary form must reproduce the above copyright notice,
// this list of conditions and the following disclaimer in the documentation
// and/or other materials provided with the distribution.
//
// THIS SOFTWARE IS PROVIDED BY THE COPYRIGHT HOLDERS AND CONTRIBUTORS "AS IS"
// AND ANY EXPRESS OR IMPLIED WARRANTIES, INCLUDING, BUT NOT LIMITED TO, THE
// IMPLIED WARRANTIES OF MERCHANTABILITY AND FITNESS FOR A PARTICULAR PURPOSE
// ARE DISCLAIMED. IN NO EVENT SHALL THE COPYRIGHT OWNER OR CONTRIBUTORS BE
// LIABLE FOR ANY DIRECT, INDIRECT, INCIDENTAL, SPECIAL, EXEMPLARY, OR
// CONSEQUENTIAL DAMAGES (INCLUDING, BUT NOT LIMITED TO, PROCUREMENT OF
// SUBSTITUTE GOODS OR SERVICES; LOSS OF USE, DATA, OR PROFITS; OR BUSINESS
// INTERRUPTION) HOWEVER CAUSED AND ON ANY THEORY OF LIABILITY, WHETHER IN
// CONTRACT, STRICT LIABILITY, OR TORT (INCLUDING NEGLIGENCE OR OTHERWISE)
// ARISING IN ANY WAY OUT OF THE USE OF THIS SOFTWARE, EVEN IF ADVISED OF THE
// POSSIBILITY OF SUCH DAMAGE.


hold_switch_for_packet=1;

vc_buf_size = 16;


wait_for_tail_credit = 0;

//
// Router architecture
//
vc_allocator = separable_input_first; 
sw_allocator = separable_input_first;
alloc_iters  = 1;

credit_delay   = 2;
routing_delay  = 0;
vc_alloc_delay = 1;
sw_alloc_delay = 1;
st_final_delay = 1;

input_speedup     = 1;
output_speedup    = 1;
internal_speedup  = 1.0;


warmup_periods = 3;
sim_count          = 1;

sample_period  = 1000;  

routing_function = nca;
num_vcs     = 4;

priority = none;
traffic = transpose;


injection_rate = 0.70;
packet_size = 1;
injection_rate_uses_flits=1;

topology = fattree;

k  = 8;
n  = 4;
t = 1;

watch_file = watchfile.txt;
watch_out=-;
stats_out = examples/fattree_config_0.70_1_transpose.m;

END Configuration File: examples/fattree_config_0.70_1_transpose
Fat Tree
 k = 8 levels = 4
 each switch - total radix =  16
 # of switches = 2048
 # of channels = 24576
 # of nodes ( size of network ) = 4096
 tapering factor = 1
0 | node3 | Enqueuing flit 1 (packet 1) at time 0.
0 | node4 | Enqueuing flit 2 (packet 2) at time 0.
0 | node5 | Enqueuing flit 3 (packet 3) at time 0.
0 | node8 | Enqueuing flit 4 (packet 4) at time 0.
0 | node9 | Enqueuing flit 5 (packet 5) at time 0.
0 | node11 | Enqueuing flit 6 (packet 6) at time 0.
0 | node12 | Enqueuing flit 7 (packet 7) at time 0.
0 | node13 | Enqueuing flit 8 (packet 8) at time 0.
0 | node14 | Enqueuing flit 9 (packet 9) at time 0.
0 | node15 | Enqueuing flit 10 (packet 10) at time 0.
0 | traffic_manager | Finding output VC for flit 1:
0 | traffic_manager |   Selected output VC 0.
0 | node3 | Generating lookahead routing info for flit 1.
0 | node3 | Injecting flit 1 into subnet 0 at time 0 with priority 0.
0 | traffic_manager | Finding output VC for flit 2:
0 | traffic_manager |   Selected output VC 0.
0 | node4 | Generating lookahead routing info for flit 2.
0 | node4 | Injecting flit 2 into subnet 0 at time 0 with priority 0.
0 | traffic_manager | Finding output VC for flit 3:
0 | traffic_manager |   Selected output VC 0.
0 | node5 | Generating lookahead routing info for flit 3.
0 | node5 | Injecting flit 3 into subnet 0 at time 0 with priority 0.
0 | traffic_manager | Finding output VC for flit 4:
0 | traffic_manager |   Selected output VC 0.
0 | node8 | Generating lookahead routing info for flit 4.
0 | node8 | Injecting flit 4 into subnet 0 at time 0 with priority 0.
0 | traffic_manager | Finding output VC for flit 5:
0 | traffic_manager |   Selected output VC 0.
0 | node9 | Generating lookahead routing info for flit 5.
0 | node9 | Injecting flit 5 into subnet 0 at time 0 with priority 0.
0 | traffic_manager | Finding output VC for flit 6:
0 | traffic_manager |   Selected output VC 0.
0 | node11 | Generating lookahead routing info for flit 6.
0 | node11 | Injecting flit 6 into subnet 0 at time 0 with priority 0.
0 | traffic_manager | Finding output VC for flit 7:
0 | traffic_manager |   Selected output VC 0.
0 | node12 | Generating lookahead routing info for flit 7.
0 | node12 | Injecting flit 7 into subnet 0 at time 0 with priority 0.
0 | traffic_manager | Finding output VC for flit 8:
0 | traffic_manager |   Selected output VC 0.
0 | node13 | Generating lookahead routing info for flit 8.
0 | node13 | Injecting flit 8 into subnet 0 at time 0 with priority 0.
0 | traffic_manager | Finding output VC for flit 9:
0 | traffic_manager |   Selected output VC 0.
0 | node14 | Generating lookahead routing info for flit 9.
0 | node14 | Injecting flit 9 into subnet 0 at time 0 with priority 0.
0 | traffic_manager | Finding output VC for flit 10:
0 | traffic_manager |   Selected output VC 0.
0 | node15 | Generating lookahead routing info for flit 10.
0 | node15 | Injecting flit 10 into subnet 0 at time 0 with priority 0.
1 | network_0/network_0_fchan_ingress3 | Beginning channel traversal for flit 1 with delay 1.
1 | network_0/network_0_fchan_ingress4 | Beginning channel traversal for flit 2 with delay 1.
1 | network_0/network_0_fchan_ingress5 | Beginning channel traversal for flit 3 with delay 1.
1 | network_0/network_0_fchan_ingress8 | Beginning channel traversal for flit 4 with delay 1.
1 | network_0/network_0_fchan_ingress9 | Beginning channel traversal for flit 5 with delay 1.
1 | network_0/network_0_fchan_ingress11 | Beginning channel traversal for flit 6 with delay 1.
1 | network_0/network_0_fchan_ingress12 | Beginning channel traversal for flit 7 with delay 1.
1 | network_0/network_0_fchan_ingress13 | Beginning channel traversal for flit 8 with delay 1.
1 | network_0/network_0_fchan_ingress14 | Beginning channel traversal for flit 9 with delay 1.
1 | network_0/network_0_fchan_ingress15 | Beginning channel traversal for flit 10 with delay 1.
1 | network_0/network_0_fchan_ingress3 | Completed channel traversal for flit 1.
1 | network_0/network_0_fchan_ingress4 | Completed channel traversal for flit 2.
1 | network_0/network_0_fchan_ingress5 | Completed channel traversal for flit 3.
1 | network_0/network_0_fchan_ingress8 | Completed channel traversal for flit 4.
1 | network_0/network_0_fchan_ingress9 | Completed channel traversal for flit 5.
1 | network_0/network_0_fchan_ingress11 | Completed channel traversal for flit 6.
1 | network_0/network_0_fchan_ingress12 | Completed channel traversal for flit 7.
1 | network_0/network_0_fchan_ingress13 | Completed channel traversal for flit 8.
1 | network_0/network_0_fchan_ingress14 | Completed channel traversal for flit 9.
1 | network_0/network_0_fchan_ingress15 | Completed channel traversal for flit 10.
2 | network_0/router_level3_0 | Received flit 1 from channel at input 3.
2 | network_0/router_level3_0 | Received flit 2 from channel at input 4.
2 | network_0/router_level3_0 | Received flit 3 from channel at input 5.
2 | network_0/router_level3_1 | Received flit 4 from channel at input 0.
2 | network_0/router_level3_1 | Received flit 5 from channel at input 1.
2 | network_0/router_level3_1 | Received flit 6 from channel at input 3.
2 | network_0/router_level3_1 | Received flit 7 from channel at input 4.
2 | network_0/router_level3_1 | Received flit 8 from channel at input 5.
2 | network_0/router_level3_1 | Received flit 9 from channel at input 6.
2 | network_0/router_level3_1 | Received flit 10 from channel at input 7.
2 | network_0/router_level3_0 | Adding flit 1 to VC 0 at input 3 (state: idle, empty).
2 | network_0/router_level3_0 | Using precomputed lookahead routing information for VC 0 at input 3 (front: 1).
2 | network_0/router_level3_0/buf_3/vc_0 | Changing state from idle to vc_alloc.
2 | network_0/router_level3_0 | Adding flit 2 to VC 0 at input 4 (state: idle, empty).
2 | network_0/router_level3_0 | Using precomputed lookahead routing information for VC 0 at input 4 (front: 2).
2 | network_0/router_level3_0/buf_4/vc_0 | Changing state from idle to vc_alloc.
2 | network_0/router_level3_0 | Adding flit 3 to VC 0 at input 5 (state: idle, empty).
2 | network_0/router_level3_0 | Using precomputed lookahead routing information for VC 0 at input 5 (front: 3).
2 | network_0/router_level3_0/buf_5/vc_0 | Changing state from idle to vc_alloc.
2 | network_0/router_level3_0 | Beginning VC allocation for VC 0 at input 3 (front: 1).
2 | network_0/router_level3_0 |   Requesting VC 0 at output 13 (in_pri: 0, out_pri: 0).
2 | network_0/router_level3_0 |   Requesting VC 1 at output 13 (in_pri: 0, out_pri: 0).
2 | network_0/router_level3_0 |   Requesting VC 2 at output 13 (in_pri: 0, out_pri: 0).
2 | network_0/router_level3_0 |   Requesting VC 3 at output 13 (in_pri: 0, out_pri: 0).
2 | network_0/router_level3_0 | Beginning VC allocation for VC 0 at input 4 (front: 2).
2 | network_0/router_level3_0 |   Requesting VC 0 at output 12 (in_pri: 0, out_pri: 0).
2 | network_0/router_level3_0 |   Requesting VC 1 at output 12 (in_pri: 0, out_pri: 0).
2 | network_0/router_level3_0 |   Requesting VC 2 at output 12 (in_pri: 0, out_pri: 0).
2 | network_0/router_level3_0 |   Requesting VC 3 at output 12 (in_pri: 0, out_pri: 0).
2 | network_0/router_level3_0 | Beginning VC allocation for VC 0 at input 5 (front: 3).
2 | network_0/router_level3_0 |   Requesting VC 0 at output 15 (in_pri: 0, out_pri: 0).
2 | network_0/router_level3_0 |   Requesting VC 1 at output 15 (in_pri: 0, out_pri: 0).
2 | network_0/router_level3_0 |   Requesting VC 2 at output 15 (in_pri: 0, out_pri: 0).
2 | network_0/router_level3_0 |   Requesting VC 3 at output 15 (in_pri: 0, out_pri: 0).
2 | network_0/router_level3_0/vc_allocator | Input requests = [ 4 -> [ 44@0 45@0 46@0 47@0 ]  12 -> [ 52@0 53@0 54@0 55@0 ]  16 -> [ 48@0 49@0 50@0 51@0 ]  20 -> [ 60@0 61@0 62@0 63@0 ]  ], output requests = [ 44 -> [ 4@0 ]  45 -> [ 4@0 ]  46 -> [ 4@0 ]  47 -> [ 4@0 ]  48 -> [ 16@0 ]  49 -> [ 16@0 ]  50 -> [ 16@0 ]  51 -> [ 16@0 ]  52 -> [ 12@0 ]  53 -> [ 12@0 ]  54 -> [ 12@0 ]  55 -> [ 12@0 ]  60 -> [ 20@0 ]  61 -> [ 20@0 ]  62 -> [ 20@0 ]  63 -> [ 20@0 ]  ].
2 | network_0/router_level3_0/vc_allocator | Input grants = [ 4 -> 44  12 -> 52  16 -> 48  20 -> 60  ], output grants = [ 44 -> 4  48 -> 16  52 -> 12  60 -> 20  ].
2 | network_0/router_level3_0 | Assigning VC 0 at output 13 to VC 0 at input 3.
2 | network_0/router_level3_0 | Assigning VC 0 at output 12 to VC 0 at input 4.
2 | network_0/router_level3_0 | Assigning VC 0 at output 15 to VC 0 at input 5.
2 | network_0/router_level3_0 | Completed VC allocation for VC 0 at input 3 (front: 1).
2 | network_0/router_level3_0 |   Acquiring assigned VC 0 at output 13.
2 | network_0/router_level3_0/buf_3/vc_0 | Changing state from vc_alloc to active.
2 | network_0/router_level3_0 | Completed VC allocation for VC 0 at input 4 (front: 2).
2 | network_0/router_level3_0 |   Acquiring assigned VC 0 at output 12.
2 | network_0/router_level3_0/buf_4/vc_0 | Changing state from vc_alloc to active.
2 | network_0/router_level3_0 | Completed VC allocation for VC 0 at input 5 (front: 3).
2 | network_0/router_level3_0 |   Acquiring assigned VC 0 at output 15.
2 | network_0/router_level3_0/buf_5/vc_0 | Changing state from vc_alloc to active.
2 | network_0/router_level3_1 | Adding flit 4 to VC 0 at input 0 (state: idle, empty).
2 | network_0/router_level3_1 | Using precomputed lookahead routing information for VC 0 at input 0 (front: 4).
2 | network_0/router_level3_1/buf_0/vc_0 | Changing state from idle to vc_alloc.
2 | network_0/router_level3_1 | Adding flit 5 to VC 0 at input 1 (state: idle, empty).
2 | network_0/router_level3_1 | Using precomputed lookahead routing information for VC 0 at input 1 (front: 5).
2 | network_0/router_level3_1/buf_1/vc_0 | Changing state from idle to vc_alloc.
2 | network_0/router_level3_1 | Adding flit 6 to VC 0 at input 3 (state: idle, empty).
2 | network_0/router_level3_1 | Using precomputed lookahead routing information for VC 0 at input 3 (front: 6).
2 | network_0/router_level3_1/buf_3/vc_0 | Changing state from idle to vc_alloc.
2 | network_0/router_level3_1 | Adding flit 7 to VC 0 at input 4 (state: idle, empty).
2 | network_0/router_level3_1 | Using precomputed lookahead routing information for VC 0 at input 4 (front: 7).
2 | network_0/router_level3_1/buf_4/vc_0 | Changing state from idle to vc_alloc.
2 | network_0/router_level3_1 | Adding flit 8 to VC 0 at input 5 (state: idle, empty).
2 | network_0/router_level3_1 | Using precomputed lookahead routing information for VC 0 at input 5 (front: 8).
2 | network_0/router_level3_1/buf_5/vc_0 | Changing state from idle to vc_alloc.
2 | network_0/router_level3_1 | Adding flit 9 to VC 0 at input 6 (state: idle, empty).
2 | network_0/router_level3_1 | Using precomputed lookahead routing information for VC 0 at input 6 (front: 9).
2 | network_0/router_level3_1/buf_6/vc_0 | Changing state from idle to vc_alloc.
2 | network_0/router_level3_1 | Adding flit 10 to VC 0 at input 7 (state: idle, empty).
2 | network_0/router_level3_1 | Using precomputed lookahead routing information for VC 0 at input 7 (front: 10).
2 | network_0/router_level3_1/buf_7/vc_0 | Changing state from idle to vc_alloc.
2 | network_0/router_level3_1 | Beginning VC allocation for VC 0 at input 0 (front: 4).
2 | network_0/router_level3_1 |   Requesting VC 0 at output 13 (in_pri: 0, out_pri: 0).
2 | network_0/router_level3_1 |   Requesting VC 1 at output 13 (in_pri: 0, out_pri: 0).
2 | network_0/router_level3_1 |   Requesting VC 2 at output 13 (in_pri: 0, out_pri: 0).
2 | network_0/router_level3_1 |   Requesting VC 3 at output 13 (in_pri: 0, out_pri: 0).
2 | network_0/router_level3_1 | Beginning VC allocation for VC 0 at input 1 (front: 5).
2 | network_0/router_level3_1 |   Requesting VC 0 at output 12 (in_pri: 0, out_pri: 0).
2 | network_0/router_level3_1 |   Requesting VC 1 at output 12 (in_pri: 0, out_pri: 0).
2 | network_0/router_level3_1 |   Requesting VC 2 at output 12 (in_pri: 0, out_pri: 0).
2 | network_0/router_level3_1 |   Requesting VC 3 at output 12 (in_pri: 0, out_pri: 0).
2 | network_0/router_level3_1 | Beginning VC allocation for VC 0 at input 3 (front: 6).
2 | network_0/router_level3_1 |   Requesting VC 0 at output 13 (in_pri: 0, out_pri: 0).
2 | network_0/router_level3_1 |   Requesting VC 1 at output 13 (in_pri: 0, out_pri: 0).
2 | network_0/router_level3_1 |   Requesting VC 2 at output 13 (in_pri: 0, out_pri: 0).
2 | network_0/router_level3_1 |   Requesting VC 3 at output 13 (in_pri: 0, out_pri: 0).
2 | network_0/router_level3_1 | Beginning VC allocation for VC 0 at input 4 (front: 7).
2 | network_0/router_level3_1 |   Requesting VC 0 at output 13 (in_pri: 0, out_pri: 0).
2 | network_0/router_level3_1 |   Requesting VC 1 at output 13 (in_pri: 0, out_pri: 0).
2 | network_0/router_level3_1 |   Requesting VC 2 at output 13 (in_pri: 0, out_pri: 0).
2 | network_0/router_level3_1 |   Requesting VC 3 at output 13 (in_pri: 0, out_pri: 0).
2 | network_0/router_level3_1 | Beginning VC allocation for VC 0 at input 5 (front: 8).
2 | network_0/router_level3_1 |   Requesting VC 0 at output 13 (in_pri: 0, out_pri: 0).
2 | network_0/router_level3_1 |   Requesting VC 1 at output 13 (in_pri: 0, out_pri: 0).
2 | network_0/router_level3_1 |   Requesting VC 2 at output 13 (in_pri: 0, out_pri: 0).
2 | network_0/router_level3_1 |   Requesting VC 3 at output 13 (in_pri: 0, out_pri: 0).
2 | network_0/router_level3_1 | Beginning VC allocation for VC 0 at input 6 (front: 9).
2 | network_0/router_level3_1 |   Requesting VC 0 at output 15 (in_pri: 0, out_pri: 0).
2 | network_0/router_level3_1 |   Requesting VC 1 at output 15 (in_pri: 0, out_pri: 0).
2 | network_0/router_level3_1 |   Requesting VC 2 at output 15 (in_pri: 0, out_pri: 0).
2 | network_0/router_level3_1 |   Requesting VC 3 at output 15 (in_pri: 0, out_pri: 0).
2 | network_0/router_level3_1 | Beginning VC allocation for VC 0 at input 7 (front: 10).
2 | network_0/router_level3_1 |   Requesting VC 0 at output 14 (in_pri: 0, out_pri: 0).
2 | network_0/router_level3_1 |   Requesting VC 1 at output 14 (in_pri: 0, out_pri: 0).
2 | network_0/router_level3_1 |   Requesting VC 2 at output 14 (in_pri: 0, out_pri: 0).
2 | network_0/router_level3_1 |   Requesting VC 3 at output 14 (in_pri: 0, out_pri: 0).
2 | network_0/router_level3_1/vc_allocator | Input requests = [ 0 -> [ 52@0 53@0 54@0 55@0 ]  4 -> [ 48@0 49@0 50@0 51@0 ]  12 -> [ 52@0 53@0 54@0 55@0 ]  16 -> [ 52@0 53@0 54@0 55@0 ]  20 -> [ 52@0 53@0 54@0 55@0 ]  24 -> [ 60@0 61@0 62@0 63@0 ]  28 -> [ 56@0 57@0 58@0 59@0 ]  ], output requests = [ 48 -> [ 4@0 ]  49 -> [ 4@0 ]  50 -> [ 4@0 ]  51 -> [ 4@0 ]  52 -> [ 0@0 12@0 16@0 20@0 ]  53 -> [ 0@0 12@0 16@0 20@0 ]  54 -> [ 0@0 12@0 16@0 20@0 ]  55 -> [ 0@0 12@0 16@0 20@0 ]  56 -> [ 28@0 ]  57 -> [ 28@0 ]  58 -> [ 28@0 ]  59 -> [ 28@0 ]  60 -> [ 24@0 ]  61 -> [ 24@0 ]  62 -> [ 24@0 ]  63 -> [ 24@0 ]  ].
2 | network_0/router_level3_1/vc_allocator | Input grants = [ 0 -> 52  4 -> 48  24 -> 60  28 -> 56  ], output grants = [ 48 -> 4  52 -> 0  56 -> 28  60 -> 24  ].
2 | network_0/router_level3_1 | Assigning VC 0 at output 13 to VC 0 at input 0.
2 | network_0/router_level3_1 | Assigning VC 0 at output 12 to VC 0 at input 1.
2 | network_0/router_level3_1 | VC allocation failed for VC 0 at input 3.
2 | network_0/router_level3_1 | VC allocation failed for VC 0 at input 4.
2 | network_0/router_level3_1 | VC allocation failed for VC 0 at input 5.
2 | network_0/router_level3_1 | Assigning VC 0 at output 15 to VC 0 at input 6.
2 | network_0/router_level3_1 | Assigning VC 0 at output 14 to VC 0 at input 7.
2 | network_0/router_level3_1 | Completed VC allocation for VC 0 at input 0 (front: 4).
2 | network_0/router_level3_1 |   Acquiring assigned VC 0 at output 13.
2 | network_0/router_level3_1/buf_0/vc_0 | Changing state from vc_alloc to active.
2 | network_0/router_level3_1 | Completed VC allocation for VC 0 at input 1 (front: 5).
2 | network_0/router_level3_1 |   Acquiring assigned VC 0 at output 12.
2 | network_0/router_level3_1/buf_1/vc_0 | Changing state from vc_alloc to active.
2 | network_0/router_level3_1 | Completed VC allocation for VC 0 at input 3 (front: 6).
2 | network_0/router_level3_1 |   No output VC allocated.
2 | network_0/router_level3_1 | Completed VC allocation for VC 0 at input 4 (front: 7).
2 | network_0/router_level3_1 |   No output VC allocated.
2 | network_0/router_level3_1 | Completed VC allocation for VC 0 at input 5 (front: 8).
2 | network_0/router_level3_1 |   No output VC allocated.
2 | network_0/router_level3_1 | Completed VC allocation for VC 0 at input 6 (front: 9).
2 | network_0/router_level3_1 |   Acquiring assigned VC 0 at output 15.
2 | network_0/router_level3_1/buf_6/vc_0 | Changing state from vc_alloc to active.
2 | network_0/router_level3_1 | Completed VC allocation for VC 0 at input 7 (front: 10).
2 | network_0/router_level3_1 |   Acquiring assigned VC 0 at output 14.
2 | network_0/router_level3_1/buf_7/vc_0 | Changing state from vc_alloc to active.
3 | network_0/router_level3_0 | Beginning switch allocation for VC 0 at input 3 (front: 1).
3 | network_0/router_level3_0 |   Requesting output 13.0 (non-spec, pri: 0).
3 | network_0/router_level3_0 | Beginning switch allocation for VC 0 at input 4 (front: 2).
3 | network_0/router_level3_0 |   Requesting output 12.0 (non-spec, pri: 0).
3 | network_0/router_level3_0 | Beginning switch allocation for VC 0 at input 5 (front: 3).
3 | network_0/router_level3_0 |   Requesting output 15.0 (non-spec, pri: 0).
3 | network_0/router_level3_0/sw_allocator | Input requests = [ 1 -> [ 11@0 ]  3 -> [ 13@0 ]  4 -> [ 12@0 ]  5 -> [ 15@0 ]  ], output requests = [ 11 -> [ 1@0 ]  12 -> [ 4@0 ]  13 -> [ 3@0 ]  15 -> [ 5@0 ]  ].
3 | network_0/router_level3_0/sw_allocator | Input grants = [ 1 -> 11  3 -> 13  4 -> 12  5 -> 15  ], output grants = [ 11 -> 1  12 -> 4  13 -> 3  15 -> 5  ].
3 | network_0/router_level3_0 | Assigning output 13.0 to VC 0 at input 3.0.
3 | network_0/router_level3_0 | Assigning output 12.0 to VC 0 at input 4.0.
3 | network_0/router_level3_0 | Assigning output 15.0 to VC 0 at input 5.0.
3 | network_0/router_level3_0 | Completed switch allocation for VC 0 at input 3 (front: 1).
3 | network_0/router_level3_0 |   Scheduling switch connection from input 3.0 to output 13.0.
3 | network_0/router_level3_0 | Updating lookahead routing information for flit 1.
3 | network_0/router_level3_0 | Completed switch allocation for VC 0 at input 4 (front: 2).
3 | network_0/router_level3_0 |   Scheduling switch connection from input 4.0 to output 12.0.
3 | network_0/router_level3_0 | Updating lookahead routing information for flit 2.
3 | network_0/router_level3_0 | Completed switch allocation for VC 0 at input 5 (front: 3).
3 | network_0/router_level3_0 |   Scheduling switch connection from input 5.0 to output 15.0.
3 | network_0/router_level3_0 | Updating lookahead routing information for flit 3.
3 | network_0/router_level3_1 | Beginning VC allocation for VC 0 at input 3 (front: 6).
3 | network_0/router_level3_1 |   VC 0 at output 13 is in use by VC 0 at input 0 (front flit: 4).
3 | network_0/router_level3_1 |   Requesting VC 1 at output 13 (in_pri: 0, out_pri: 0).
3 | network_0/router_level3_1 |   Requesting VC 2 at output 13 (in_pri: 0, out_pri: 0).
3 | network_0/router_level3_1 |   Requesting VC 3 at output 13 (in_pri: 0, out_pri: 0).
3 | network_0/router_level3_1 | Beginning VC allocation for VC 0 at input 4 (front: 7).
3 | network_0/router_level3_1 |   VC 0 at output 13 is in use by VC 0 at input 0 (front flit: 4).
3 | network_0/router_level3_1 |   Requesting VC 1 at output 13 (in_pri: 0, out_pri: 0).
3 | network_0/router_level3_1 |   Requesting VC 2 at output 13 (in_pri: 0, out_pri: 0).
3 | network_0/router_level3_1 |   Requesting VC 3 at output 13 (in_pri: 0, out_pri: 0).
3 | network_0/router_level3_1 | Beginning VC allocation for VC 0 at input 5 (front: 8).
3 | network_0/router_level3_1 |   VC 0 at output 13 is in use by VC 0 at input 0 (front flit: 4).
3 | network_0/router_level3_1 |   Requesting VC 1 at output 13 (in_pri: 0, out_pri: 0).
3 | network_0/router_level3_1 |   Requesting VC 2 at output 13 (in_pri: 0, out_pri: 0).
3 | network_0/router_level3_1 |   Requesting VC 3 at output 13 (in_pri: 0, out_pri: 0).
3 | network_0/router_level3_1/vc_allocator | Input requests = [ 5 -> [ 40@0 41@0 42@0 43@0 ]  12 -> [ 53@0 54@0 55@0 ]  16 -> [ 53@0 54@0 55@0 ]  17 -> [ 32@0 33@0 34@0 35@0 ]  20 -> [ 53@0 54@0 55@0 ]  21 -> [ 44@0 45@0 46@0 47@0 ]  25 -> [ 49@0 50@0 51@0 ]  ], output requests = [ 32 -> [ 17@0 ]  33 -> [ 17@0 ]  34 -> [ 17@0 ]  35 -> [ 17@0 ]  40 -> [ 5@0 ]  41 -> [ 5@0 ]  42 -> [ 5@0 ]  43 -> [ 5@0 ]  44 -> [ 21@0 ]  45 -> [ 21@0 ]  46 -> [ 21@0 ]  47 -> [ 21@0 ]  49 -> [ 25@0 ]  50 -> [ 25@0 ]  51 -> [ 25@0 ]  53 -> [ 12@0 16@0 20@0 ]  54 -> [ 12@0 16@0 20@0 ]  55 -> [ 12@0 16@0 20@0 ]  ].
3 | network_0/router_level3_1/vc_allocator | Input grants = [ 5 -> 40  12 -> 53  17 -> 32  21 -> 44  25 -> 49  ], output grants = [ 32 -> 17  40 -> 5  44 -> 21  49 -> 25  53 -> 12  ].
3 | network_0/router_level3_1 | Assigning VC 1 at output 13 to VC 0 at input 3.
3 | network_0/router_level3_1 | VC allocation failed for VC 0 at input 4.
3 | network_0/router_level3_1 | VC allocation failed for VC 0 at input 5.
3 | network_0/router_level3_1 | Beginning switch allocation for VC 0 at input 0 (front: 4).
3 | network_0/router_level3_1 |   Requesting output 13.0 (non-spec, pri: 0).
3 | network_0/router_level3_1 | Beginning switch allocation for VC 0 at input 1 (front: 5).
3 | network_0/router_level3_1 |   Requesting output 12.0 (non-spec, pri: 0).
3 | network_0/router_level3_1 | Beginning switch allocation for VC 0 at input 6 (front: 9).
3 | network_0/router_level3_1 |   Requesting output 15.0 (non-spec, pri: 0).
3 | network_0/router_level3_1 | Beginning switch allocation for VC 0 at input 7 (front: 10).
3 | network_0/router_level3_1 |   Requesting output 14.0 (non-spec, pri: 0).
3 | network_0/router_level3_1/sw_allocator | Input requests = [ 0 -> [ 13@0 ]  1 -> [ 12@0 ]  6 -> [ 15@0 ]  7 -> [ 14@0 ]  ], output requests = [ 12 -> [ 1@0 ]  13 -> [ 0@0 ]  14 -> [ 7@0 ]  15 -> [ 6@0 ]  ].
3 | network_0/router_level3_1/sw_allocator | Input grants = [ 0 -> 13  1 -> 12  6 -> 15  7 -> 14  ], output grants = [ 12 -> 1  13 -> 0  14 -> 7  15 -> 6  ].
3 | network_0/router_level3_1 | Assigning output 13.0 to VC 0 at input 0.0.
3 | network_0/router_level3_1 | Assigning output 12.0 to VC 0 at input 1.0.
3 | network_0/router_level3_1 | Assigning output 15.0 to VC 0 at input 6.0.
3 | network_0/router_level3_1 | Assigning output 14.0 to VC 0 at input 7.0.
3 | network_0/router_level3_1 | Completed VC allocation for VC 0 at input 3 (front: 6).
3 | network_0/router_level3_1 |   Acquiring assigned VC 1 at output 13.
3 | network_0/router_level3_1/buf_3/vc_0 | Changing state from vc_alloc to active.
3 | network_0/router_level3_1 | Completed VC allocation for VC 0 at input 4 (front: 7).
3 | network_0/router_level3_1 |   No output VC allocated.
3 | network_0/router_level3_1 | Completed VC allocation for VC 0 at input 5 (front: 8).
3 | network_0/router_level3_1 |   No output VC allocated.
3 | network_0/router_level3_1 | Completed switch allocation for VC 0 at input 0 (front: 4).
3 | network_0/router_level3_1 |   Scheduling switch connection from input 0.0 to output 13.0.
3 | network_0/router_level3_1 | Updating lookahead routing information for flit 4.
3 | network_0/router_level3_1 | Completed switch allocation for VC 0 at input 1 (front: 5).
3 | network_0/router_level3_1 |   Scheduling switch connection from input 1.0 to output 12.0.
3 | network_0/router_level3_1 | Updating lookahead routing information for flit 5.
3 | network_0/router_level3_1 | Completed switch allocation for VC 0 at input 6 (front: 9).
3 | network_0/router_level3_1 |   Scheduling switch connection from input 6.0 to output 15.0.
3 | network_0/router_level3_1 | Updating lookahead routing information for flit 9.
3 | network_0/router_level3_1 | Completed switch allocation for VC 0 at input 7 (front: 10).
3 | network_0/router_level3_1 |   Scheduling switch connection from input 7.0 to output 14.0.
3 | network_0/router_level3_1 | Updating lookahead routing information for flit 10.
4 | network_0/router_level3_0 | Beginning crossbar traversal for flit 1 from input 3.0 to output 13.0.
4 | network_0/router_level3_0 | Beginning crossbar traversal for flit 2 from input 4.0 to output 12.0.
4 | network_0/router_level3_0 | Beginning crossbar traversal for flit 3 from input 5.0 to output 15.0.
4 | network_0/router_level3_0 | Completed crossbar traversal for flit 1 from input 3.0 to output 13.0.
4 | network_0/router_level3_0 | Buffering flit 1 at output 13.
4 | network_0/router_level3_0 | Completed crossbar traversal for flit 2 from input 4.0 to output 12.0.
4 | network_0/router_level3_0 | Buffering flit 2 at output 12.
4 | network_0/router_level3_0 | Completed crossbar traversal for flit 3 from input 5.0 to output 15.0.
4 | network_0/router_level3_0 | Buffering flit 3 at output 15.
4 | network_0/router_level3_1 | Beginning VC allocation for VC 0 at input 4 (front: 7).
4 | network_0/router_level3_1 |   Requesting VC 0 at output 13 (in_pri: 0, out_pri: 0).
4 | network_0/router_level3_1 |   VC 1 at output 13 is in use by VC 0 at input 3 (front flit: 6).
4 | network_0/router_level3_1 |   Requesting VC 2 at output 13 (in_pri: 0, out_pri: 0).
4 | network_0/router_level3_1 |   Requesting VC 3 at output 13 (in_pri: 0, out_pri: 0).
4 | network_0/router_level3_1 | Beginning VC allocation for VC 0 at input 5 (front: 8).
4 | network_0/router_level3_1 |   Requesting VC 0 at output 13 (in_pri: 0, out_pri: 0).
4 | network_0/router_level3_1 |   VC 1 at output 13 is in use by VC 0 at input 3 (front flit: 6).
4 | network_0/router_level3_1 |   Requesting VC 2 at output 13 (in_pri: 0, out_pri: 0).
4 | network_0/router_level3_1 |   Requesting VC 3 at output 13 (in_pri: 0, out_pri: 0).
4 | network_0/router_level3_1/vc_allocator | Input requests = [ 1 -> [ 41@0 42@0 43@0 ]  6 -> [ 36@0 37@0 38@0 39@0 ]  16 -> [ 52@0 54@0 55@0 ]  18 -> [ 41@0 42@0 43@0 ]  20 -> [ 52@0 54@0 55@0 ]  22 -> [ 33@0 34@0 35@0 ]  ], output requests = [ 33 -> [ 22@0 ]  34 -> [ 22@0 ]  35 -> [ 22@0 ]  36 -> [ 6@0 ]  37 -> [ 6@0 ]  38 -> [ 6@0 ]  39 -> [ 6@0 ]  41 -> [ 1@0 18@0 ]  42 -> [ 1@0 18@0 ]  43 -> [ 1@0 18@0 ]  52 -> [ 16@0 20@0 ]  54 -> [ 16@0 20@0 ]  55 -> [ 16@0 20@0 ]  ].
4 | network_0/router_level3_1/vc_allocator | Input grants = [ 1 -> 41  6 -> 36  16 -> 52  22 -> 33  ], output grants = [ 33 -> 22  36 -> 6  41 -> 1  52 -> 16  ].
4 | network_0/router_level3_1 | Assigning VC 0 at output 13 to VC 0 at input 4.
4 | network_0/router_level3_1 | VC allocation failed for VC 0 at input 5.
4 | network_0/router_level3_1 | Beginning switch allocation for VC 0 at input 3 (front: 6).
4 | network_0/router_level3_1 |   Requesting output 13.0 (non-spec, pri: 0).
4 | network_0/router_level3_1/sw_allocator | Input requests = [ 1 -> [ 10@0 ]  3 -> [ 13@0 ]  4 -> [ 8@0 ]  5 -> [ 11@0 ]  6 -> [ 12@0 ]  ], output requests = [ 8 -> [ 4@0 ]  10 -> [ 1@0 ]  11 -> [ 5@0 ]  12 -> [ 6@0 ]  13 -> [ 3@0 ]  ].
4 | network_0/router_level3_1/sw_allocator | Input grants = [ 1 -> 10  3 -> 13  4 -> 8  5 -> 11  6 -> 12  ], output grants = [ 8 -> 4  10 -> 1  11 -> 5  12 -> 6  13 -> 3  ].
4 | network_0/router_level3_1 | Assigning output 13.0 to VC 0 at input 3.0.
4 | network_0/router_level3_1 | Beginning crossbar traversal for flit 4 from input 0.0 to output 13.0.
4 | network_0/router_level3_1 | Beginning crossbar traversal for flit 5 from input 1.0 to output 12.0.
4 | network_0/router_level3_1 | Beginning crossbar traversal for flit 9 from input 6.0 to output 15.0.
4 | network_0/router_level3_1 | Beginning crossbar traversal for flit 10 from input 7.0 to output 14.0.
4 | network_0/router_level3_1 | Completed VC allocation for VC 0 at input 4 (front: 7).
4 | network_0/router_level3_1 |   Acquiring assigned VC 0 at output 13.
4 | network_0/router_level3_1/buf_4/vc_0 | Changing state from vc_alloc to active.
4 | network_0/router_level3_1 | Completed VC allocation for VC 0 at input 5 (front: 8).
4 | network_0/router_level3_1 |   No output VC allocated.
4 | network_0/router_level3_1 | Completed switch allocation for VC 0 at input 3 (front: 6).
4 | network_0/router_level3_1 |   Scheduling switch connection from input 3.0 to output 13.0.
4 | network_0/router_level3_1 | Updating lookahead routing information for flit 6.
4 | network_0/router_level3_1 | Completed crossbar traversal for flit 4 from input 0.0 to output 13.0.
4 | network_0/router_level3_1 | Buffering flit 4 at output 13.
4 | network_0/router_level3_1 | Completed crossbar traversal for flit 5 from input 1.0 to output 12.0.
4 | network_0/router_level3_1 | Buffering flit 5 at output 12.
4 | network_0/router_level3_1 | Completed crossbar traversal for flit 9 from input 6.0 to output 15.0.
4 | network_0/router_level3_1 | Buffering flit 9 at output 15.
4 | network_0/router_level3_1 | Completed crossbar traversal for flit 10 from input 7.0 to output 14.0.
4 | network_0/router_level3_1 | Buffering flit 10 at output 14.
4 | network_0/router_level3_0 | Sending flit 2 to channel at output 12.
4 | network_0/router_level3_0 | Sending flit 1 to channel at output 13.
4 | network_0/router_level3_0 | Sending flit 3 to channel at output 15.
4 | network_0/router_level3_1 | Sending flit 5 to channel at output 12.
4 | network_0/router_level3_1 | Sending flit 4 to channel at output 13.
4 | network_0/router_level3_1 | Sending flit 10 to channel at output 14.
4 | network_0/router_level3_1 | Sending flit 9 to channel at output 15.
5 | network_0/network_0_fchan_20484 | Beginning channel traversal for flit 2 with delay 1.
5 | network_0/network_0_fchan_20485 | Beginning channel traversal for flit 1 with delay 1.
5 | network_0/network_0_fchan_20487 | Beginning channel traversal for flit 3 with delay 1.
5 | network_0/network_0_fchan_20492 | Beginning channel traversal for flit 5 with delay 1.
5 | network_0/network_0_fchan_20493 | Beginning channel traversal for flit 4 with delay 1.
5 | network_0/network_0_fchan_20494 | Beginning channel traversal for flit 10 with delay 1.
5 | network_0/network_0_fchan_20495 | Beginning channel traversal for flit 9 with delay 1.
5 | network_0/router_level3_1 | Beginning VC allocation for VC 0 at input 5 (front: 8).
5 | network_0/router_level3_1 |   VC 0 at output 13 is in use by VC 0 at input 4 (front flit: 7).
5 | network_0/router_level3_1 |   Requesting VC 1 at output 13 (in_pri: 0, out_pri: 0).
5 | network_0/router_level3_1 |   Requesting VC 2 at output 13 (in_pri: 0, out_pri: 0).
5 | network_0/router_level3_1 |   Requesting VC 3 at output 13 (in_pri: 0, out_pri: 0).
5 | network_0/router_level3_1/vc_allocator | Input requests = [ 2 -> [ 48@0 49@0 50@0 51@0 ]  7 -> [ 32@0 34@0 35@0 ]  8 -> [ 48@0 49@0 50@0 51@0 ]  18 -> [ 40@0 42@0 43@0 ]  19 -> [ 37@0 38@0 39@0 ]  20 -> [ 53@0 54@0 55@0 ]  23 -> [ 48@0 49@0 50@0 51@0 ]  26 -> [ 32@0 34@0 35@0 ]  29 -> [ 32@0 34@0 35@0 ]  ], output requests = [ 32 -> [ 7@0 26@0 29@0 ]  34 -> [ 7@0 26@0 29@0 ]  35 -> [ 7@0 26@0 29@0 ]  37 -> [ 19@0 ]  38 -> [ 19@0 ]  39 -> [ 19@0 ]  40 -> [ 18@0 ]  42 -> [ 18@0 ]  43 -> [ 18@0 ]  48 -> [ 2@0 8@0 23@0 ]  49 -> [ 2@0 8@0 23@0 ]  50 -> [ 2@0 8@0 23@0 ]  51 -> [ 2@0 8@0 23@0 ]  53 -> [ 20@0 ]  54 -> [ 20@0 ]  55 -> [ 20@0 ]  ].
5 | network_0/router_level3_1/vc_allocator | Input grants = [ 8 -> 48  18 -> 40  19 -> 37  20 -> 53  26 -> 32  ], output grants = [ 32 -> 26  37 -> 19  40 -> 18  48 -> 8  53 -> 20  ].
5 | network_0/router_level3_1 | Assigning VC 1 at output 13 to VC 0 at input 5.
5 | network_0/router_level3_1 | Beginning switch allocation for VC 0 at input 4 (front: 7).
5 | network_0/router_level3_1 |   Requesting output 13.0 (non-spec, pri: 0).
5 | network_0/router_level3_1/sw_allocator | Input requests = [ 0 -> [ 10@0 ]  1 -> [ 9@0 ]  4 -> [ 13@0 ]  5 -> [ 8@0 ]  ], output requests = [ 8 -> [ 5@0 ]  9 -> [ 1@0 ]  10 -> [ 0@0 ]  13 -> [ 4@0 ]  ].
5 | network_0/router_level3_1/sw_allocator | Input grants = [ 0 -> 10  1 -> 9  4 -> 13  5 -> 8  ], output grants = [ 8 -> 5  9 -> 1  10 -> 0  13 -> 4  ].
5 | network_0/router_level3_1 | Assigning output 13.0 to VC 0 at input 4.0.
5 | network_0/router_level3_1 | Beginning crossbar traversal for flit 6 from input 3.0 to output 13.0.
5 | network_0/router_level3_1 | Completed VC allocation for VC 0 at input 5 (front: 8).
5 | network_0/router_level3_1 |   Acquiring assigned VC 1 at output 13.
5 | network_0/router_level3_1/buf_5/vc_0 | Changing state from vc_alloc to active.
5 | network_0/router_level3_1 | Completed switch allocation for VC 0 at input 4 (front: 7).
5 | network_0/router_level3_1 |   Scheduling switch connection from input 4.0 to output 13.0.
5 | network_0/router_level3_1 | Updating lookahead routing information for flit 7.
5 | network_0/router_level3_1 | Completed crossbar traversal for flit 6 from input 3.0 to output 13.0.
5 | network_0/router_level3_1 | Buffering flit 6 at output 13.
5 | network_0/network_0_fchan_20484 | Completed channel traversal for flit 2.
5 | network_0/network_0_fchan_20485 | Completed channel traversal for flit 1.
5 | network_0/network_0_fchan_20487 | Completed channel traversal for flit 3.
5 | network_0/network_0_fchan_20492 | Completed channel traversal for flit 5.
5 | network_0/network_0_fchan_20493 | Completed channel traversal for flit 4.
5 | network_0/network_0_fchan_20494 | Completed channel traversal for flit 10.
5 | network_0/network_0_fchan_20495 | Completed channel traversal for flit 9.
5 | network_0/router_level3_1 | Sending flit 6 to channel at output 13.
6 | network_0/network_0_fchan_20493 | Beginning channel traversal for flit 6 with delay 1.
6 | network_0/router_level2_4 | Received flit 2 from channel at input 0.
6 | network_0/router_level2_4 | Received flit 5 from channel at input 1.
6 | network_0/router_level2_5 | Received flit 1 from channel at input 0.
6 | network_0/router_level2_5 | Received flit 4 from channel at input 1.
6 | network_0/router_level2_6 | Received flit 10 from channel at input 1.
6 | network_0/router_level2_7 | Received flit 3 from channel at input 0.
6 | network_0/router_level2_7 | Received flit 9 from channel at input 1.
6 | network_0/router_level2_4 | Adding flit 2 to VC 0 at input 0 (state: idle, empty).
6 | network_0/router_level2_4 | Using precomputed lookahead routing information for VC 0 at input 0 (front: 2).
6 | network_0/router_level2_4/buf_0/vc_0 | Changing state from idle to vc_alloc.
6 | network_0/router_level2_4 | Adding flit 5 to VC 0 at input 1 (state: idle, empty).
6 | network_0/router_level2_4 | Using precomputed lookahead routing information for VC 0 at input 1 (front: 5).
6 | network_0/router_level2_4/buf_1/vc_0 | Changing state from idle to vc_alloc.
6 | network_0/router_level2_4 | Beginning VC allocation for VC 0 at input 0 (front: 2).
6 | network_0/router_level2_4 |   Requesting VC 0 at output 9 (in_pri: 0, out_pri: 0).
6 | network_0/router_level2_4 |   Requesting VC 1 at output 9 (in_pri: 0, out_pri: 0).
6 | network_0/router_level2_4 |   Requesting VC 2 at output 9 (in_pri: 0, out_pri: 0).
6 | network_0/router_level2_4 |   Requesting VC 3 at output 9 (in_pri: 0, out_pri: 0).
6 | network_0/router_level2_4 | Beginning VC allocation for VC 0 at input 1 (front: 5).
6 | network_0/router_level2_4 |   Requesting VC 0 at output 13 (in_pri: 0, out_pri: 0).
6 | network_0/router_level2_4 |   Requesting VC 1 at output 13 (in_pri: 0, out_pri: 0).
6 | network_0/router_level2_4 |   Requesting VC 2 at output 13 (in_pri: 0, out_pri: 0).
6 | network_0/router_level2_4 |   Requesting VC 3 at output 13 (in_pri: 0, out_pri: 0).
6 | network_0/router_level2_4/vc_allocator | Input requests = [ 0 -> [ 36@0 37@0 38@0 39@0 ]  4 -> [ 52@0 53@0 54@0 55@0 ]  ], output requests = [ 36 -> [ 0@0 ]  37 -> [ 0@0 ]  38 -> [ 0@0 ]  39 -> [ 0@0 ]  52 -> [ 4@0 ]  53 -> [ 4@0 ]  54 -> [ 4@0 ]  55 -> [ 4@0 ]  ].
6 | network_0/router_level2_4/vc_allocator | Input grants = [ 0 -> 36  4 -> 52  ], output grants = [ 36 -> 0  52 -> 4  ].
6 | network_0/router_level2_4 | Assigning VC 0 at output 9 to VC 0 at input 0.
6 | network_0/router_level2_4 | Assigning VC 0 at output 13 to VC 0 at input 1.
6 | network_0/router_level2_4 | Completed VC allocation for VC 0 at input 0 (front: 2).
6 | network_0/router_level2_4 |   Acquiring assigned VC 0 at output 9.
6 | network_0/router_level2_4/buf_0/vc_0 | Changing state from vc_alloc to active.
6 | network_0/router_level2_4 | Completed VC allocation for VC 0 at input 1 (front: 5).
6 | network_0/router_level2_4 |   Acquiring assigned VC 0 at output 13.
6 | network_0/router_level2_4/buf_1/vc_0 | Changing state from vc_alloc to active.
6 | network_0/router_level2_5 | Adding flit 1 to VC 0 at input 0 (state: idle, empty).
6 | network_0/router_level2_5 | Using precomputed lookahead routing information for VC 0 at input 0 (front: 1).
6 | network_0/router_level2_5/buf_0/vc_0 | Changing state from idle to vc_alloc.
6 | network_0/router_level2_5 | Adding flit 4 to VC 0 at input 1 (state: idle, empty).
6 | network_0/router_level2_5 | Using precomputed lookahead routing information for VC 0 at input 1 (front: 4).
6 | network_0/router_level2_5/buf_1/vc_0 | Changing state from idle to vc_alloc.
6 | network_0/router_level2_5 | Beginning VC allocation for VC 0 at input 0 (front: 1).
6 | network_0/router_level2_5 |   Requesting VC 0 at output 11 (in_pri: 0, out_pri: 0).
6 | network_0/router_level2_5 |   Requesting VC 1 at output 11 (in_pri: 0, out_pri: 0).
6 | network_0/router_level2_5 |   Requesting VC 2 at output 11 (in_pri: 0, out_pri: 0).
6 | network_0/router_level2_5 |   Requesting VC 3 at output 11 (in_pri: 0, out_pri: 0).
6 | network_0/router_level2_5 | Beginning VC allocation for VC 0 at input 1 (front: 4).
6 | network_0/router_level2_5 |   Requesting VC 0 at output 14 (in_pri: 0, out_pri: 0).
6 | network_0/router_level2_5 |   Requesting VC 1 at output 14 (in_pri: 0, out_pri: 0).
6 | network_0/router_level2_5 |   Requesting VC 2 at output 14 (in_pri: 0, out_pri: 0).
6 | network_0/router_level2_5 |   Requesting VC 3 at output 14 (in_pri: 0, out_pri: 0).
6 | network_0/router_level2_5/vc_allocator | Input requests = [ 0 -> [ 44@0 45@0 46@0 47@0 ]  4 -> [ 56@0 57@0 58@0 59@0 ]  12 -> [ 36@0 37@0 38@0 39@0 ]  16 -> [ 36@0 37@0 38@0 39@0 ]  24 -> [ 40@0 41@0 42@0 43@0 ]  28 -> [ 36@0 37@0 38@0 39@0 ]  ], output requests = [ 36 -> [ 12@0 16@0 28@0 ]  37 -> [ 12@0 16@0 28@0 ]  38 -> [ 12@0 16@0 28@0 ]  39 -> [ 12@0 16@0 28@0 ]  40 -> [ 24@0 ]  41 -> [ 24@0 ]  42 -> [ 24@0 ]  43 -> [ 24@0 ]  44 -> [ 0@0 ]  45 -> [ 0@0 ]  46 -> [ 0@0 ]  47 -> [ 0@0 ]  56 -> [ 4@0 ]  57 -> [ 4@0 ]  58 -> [ 4@0 ]  59 -> [ 4@0 ]  ].
6 | network_0/router_level2_5/vc_allocator | Input grants = [ 0 -> 44  4 -> 56  12 -> 36  24 -> 40  ], output grants = [ 36 -> 12  40 -> 24  44 -> 0  56 -> 4  ].
6 | network_0/router_level2_5 | Assigning VC 0 at output 11 to VC 0 at input 0.
6 | network_0/router_level2_5 | Assigning VC 0 at output 14 to VC 0 at input 1.
6 | network_0/router_level2_5 | Completed VC allocation for VC 0 at input 0 (front: 1).
6 | network_0/router_level2_5 |   Acquiring assigned VC 0 at output 11.
6 | network_0/router_level2_5/buf_0/vc_0 | Changing state from vc_alloc to active.
6 | network_0/router_level2_5 | Completed VC allocation for VC 0 at input 1 (front: 4).
6 | network_0/router_level2_5 |   Acquiring assigned VC 0 at output 14.
6 | network_0/router_level2_5/buf_1/vc_0 | Changing state from vc_alloc to active.
6 | network_0/router_level2_6 | Adding flit 10 to VC 0 at input 1 (state: idle, empty).
6 | network_0/router_level2_6 | Using precomputed lookahead routing information for VC 0 at input 1 (front: 10).
6 | network_0/router_level2_6/buf_1/vc_0 | Changing state from idle to vc_alloc.
6 | network_0/router_level2_6 | Beginning VC allocation for VC 0 at input 1 (front: 10).
6 | network_0/router_level2_6 |   Requesting VC 0 at output 13 (in_pri: 0, out_pri: 0).
6 | network_0/router_level2_6 |   Requesting VC 1 at output 13 (in_pri: 0, out_pri: 0).
6 | network_0/router_level2_6 |   Requesting VC 2 at output 13 (in_pri: 0, out_pri: 0).
6 | network_0/router_level2_6 |   Requesting VC 3 at output 13 (in_pri: 0, out_pri: 0).
6 | network_0/router_level2_6/vc_allocator | Input requests = [ 4 -> [ 52@0 53@0 54@0 55@0 ]  12 -> [ 60@0 61@0 62@0 63@0 ]  20 -> [ 56@0 57@0 58@0 59@0 ]  ], output requests = [ 52 -> [ 4@0 ]  53 -> [ 4@0 ]  54 -> [ 4@0 ]  55 -> [ 4@0 ]  56 -> [ 20@0 ]  57 -> [ 20@0 ]  58 -> [ 20@0 ]  59 -> [ 20@0 ]  60 -> [ 12@0 ]  61 -> [ 12@0 ]  62 -> [ 12@0 ]  63 -> [ 12@0 ]  ].
6 | network_0/router_level2_6/vc_allocator | Input grants = [ 4 -> 52  12 -> 60  20 -> 56  ], output grants = [ 52 -> 4  56 -> 20  60 -> 12  ].
6 | network_0/router_level2_6 | Assigning VC 0 at output 13 to VC 0 at input 1.
6 | network_0/router_level2_6 | Completed VC allocation for VC 0 at input 1 (front: 10).
6 | network_0/router_level2_6 |   Acquiring assigned VC 0 at output 13.
6 | network_0/router_level2_6/buf_1/vc_0 | Changing state from vc_alloc to active.
6 | network_0/router_level2_7 | Adding flit 3 to VC 0 at input 0 (state: idle, empty).
6 | network_0/router_level2_7 | Using precomputed lookahead routing information for VC 0 at input 0 (front: 3).
6 | network_0/router_level2_7/buf_0/vc_0 | Changing state from idle to vc_alloc.
6 | network_0/router_level2_7 | Adding flit 9 to VC 0 at input 1 (state: idle, empty).
6 | network_0/router_level2_7 | Using precomputed lookahead routing information for VC 0 at input 1 (front: 9).
6 | network_0/router_level2_7/buf_1/vc_0 | Changing state from idle to vc_alloc.
6 | network_0/router_level2_7 | Beginning VC allocation for VC 0 at input 0 (front: 3).
6 | network_0/router_level2_7 |   Requesting VC 0 at output 15 (in_pri: 0, out_pri: 0).
6 | network_0/router_level2_7 |   Requesting VC 1 at output 15 (in_pri: 0, out_pri: 0).
6 | network_0/router_level2_7 |   Requesting VC 2 at output 15 (in_pri: 0, out_pri: 0).
6 | network_0/router_level2_7 |   Requesting VC 3 at output 15 (in_pri: 0, out_pri: 0).
6 | network_0/router_level2_7 | Beginning VC allocation for VC 0 at input 1 (front: 9).
6 | network_0/router_level2_7 |   Requesting VC 0 at output 10 (in_pri: 0, out_pri: 0).
6 | network_0/router_level2_7 |   Requesting VC 1 at output 10 (in_pri: 0, out_pri: 0).
6 | network_0/router_level2_7 |   Requesting VC 2 at output 10 (in_pri: 0, out_pri: 0).
6 | network_0/router_level2_7 |   Requesting VC 3 at output 10 (in_pri: 0, out_pri: 0).
6 | network_0/router_level2_7/vc_allocator | Input requests = [ 0 -> [ 60@0 61@0 62@0 63@0 ]  4 -> [ 40@0 41@0 42@0 43@0 ]  8 -> [ 36@0 37@0 38@0 39@0 ]  12 -> [ 48@0 49@0 50@0 51@0 ]  16 -> [ 52@0 53@0 54@0 55@0 ]  20 -> [ 32@0 33@0 34@0 35@0 ]  ], output requests = [ 32 -> [ 20@0 ]  33 -> [ 20@0 ]  34 -> [ 20@0 ]  35 -> [ 20@0 ]  36 -> [ 8@0 ]  37 -> [ 8@0 ]  38 -> [ 8@0 ]  39 -> [ 8@0 ]  40 -> [ 4@0 ]  41 -> [ 4@0 ]  42 -> [ 4@0 ]  43 -> [ 4@0 ]  48 -> [ 12@0 ]  49 -> [ 12@0 ]  50 -> [ 12@0 ]  51 -> [ 12@0 ]  52 -> [ 16@0 ]  53 -> [ 16@0 ]  54 -> [ 16@0 ]  55 -> [ 16@0 ]  60 -> [ 0@0 ]  61 -> [ 0@0 ]  62 -> [ 0@0 ]  63 -> [ 0@0 ]  ].
6 | network_0/router_level2_7/vc_allocator | Input grants = [ 0 -> 60  4 -> 40  8 -> 36  12 -> 48  16 -> 52  20 -> 32  ], output grants = [ 32 -> 20  36 -> 8  40 -> 4  48 -> 12  52 -> 16  60 -> 0  ].
6 | network_0/router_level2_7 | Assigning VC 0 at output 15 to VC 0 at input 0.
6 | network_0/router_level2_7 | Assigning VC 0 at output 10 to VC 0 at input 1.
6 | network_0/router_level2_7 | Completed VC allocation for VC 0 at input 0 (front: 3).
6 | network_0/router_level2_7 |   Acquiring assigned VC 0 at output 15.
6 | network_0/router_level2_7/buf_0/vc_0 | Changing state from vc_alloc to active.
6 | network_0/router_level2_7 | Completed VC allocation for VC 0 at input 1 (front: 9).
6 | network_0/router_level2_7 |   Acquiring assigned VC 0 at output 10.
6 | network_0/router_level2_7/buf_1/vc_0 | Changing state from vc_alloc to active.
6 | network_0/router_level3_1 | Beginning switch allocation for VC 0 at input 5 (front: 8).
6 | network_0/router_level3_1 |   Requesting output 13.0 (non-spec, pri: 0).
6 | network_0/router_level3_1/sw_allocator | Input requests = [ 2 -> [ 12@0 ]  4 -> [ 9@0 10@0 ]  5 -> [ 13@0 ]  6 -> [ 8@0 ]  ], output requests = [ 8 -> [ 6@0 ]  9 -> [ 4@0 ]  10 -> [ 4@0 ]  12 -> [ 2@0 ]  13 -> [ 5@0 ]  ].
6 | network_0/router_level3_1/sw_allocator | Input grants = [ 2 -> 12  4 -> 9  5 -> 13  6 -> 8  ], output grants = [ 8 -> 6  9 -> 4  12 -> 2  13 -> 5  ].
6 | network_0/router_level3_1 | Assigning output 13.0 to VC 0 at input 5.0.
6 | network_0/router_level3_1 | Beginning crossbar traversal for flit 7 from input 4.0 to output 13.0.
6 | network_0/router_level3_1 | Completed switch allocation for VC 0 at input 5 (front: 8).
6 | network_0/router_level3_1 |   Scheduling switch connection from input 5.0 to output 13.0.
6 | network_0/router_level3_1 | Updating lookahead routing information for flit 8.
6 | network_0/router_level3_1 | Completed crossbar traversal for flit 7 from input 4.0 to output 13.0.
6 | network_0/router_level3_1 | Buffering flit 7 at output 13.
6 | network_0/network_0_fchan_20493 | Completed channel traversal for flit 6.
6 | network_0/router_level3_1 | Sending flit 7 to channel at output 13.
7 | network_0/network_0_fchan_20493 | Beginning channel traversal for flit 7 with delay 1.
7 | network_0/router_level2_5 | Received flit 6 from channel at input 1.
7 | network_0/router_level2_4 | Beginning switch allocation for VC 0 at input 0 (front: 2).
7 | network_0/router_level2_4 |   Requesting output 9.0 (non-spec, pri: 0).
7 | network_0/router_level2_4 | Beginning switch allocation for VC 0 at input 1 (front: 5).
7 | network_0/router_level2_4 |   Requesting output 13.0 (non-spec, pri: 0).
7 | network_0/router_level2_4/sw_allocator | Input requests = [ 0 -> [ 9@0 ]  1 -> [ 13@0 ]  ], output requests = [ 9 -> [ 0@0 ]  13 -> [ 1@0 ]  ].
7 | network_0/router_level2_4/sw_allocator | Input grants = [ 0 -> 9  1 -> 13  ], output grants = [ 9 -> 0  13 -> 1  ].
7 | network_0/router_level2_4 | Assigning output 9.0 to VC 0 at input 0.0.
7 | network_0/router_level2_4 | Assigning output 13.0 to VC 0 at input 1.0.
7 | network_0/router_level2_4 | Completed switch allocation for VC 0 at input 0 (front: 2).
7 | network_0/router_level2_4 |   Scheduling switch connection from input 0.0 to output 9.0.
7 | network_0/router_level2_4 | Updating lookahead routing information for flit 2.
7 | network_0/router_level2_4 | Completed switch allocation for VC 0 at input 1 (front: 5).
7 | network_0/router_level2_4 |   Scheduling switch connection from input 1.0 to output 13.0.
7 | network_0/router_level2_4 | Updating lookahead routing information for flit 5.
7 | network_0/router_level2_5 | Adding flit 6 to VC 1 at input 1 (state: idle, empty).
7 | network_0/router_level2_5 | Using precomputed lookahead routing information for VC 1 at input 1 (front: 6).
7 | network_0/router_level2_5/buf_1/vc_1 | Changing state from idle to vc_alloc.
7 | network_0/router_level2_5 | Beginning VC allocation for VC 1 at input 1 (front: 6).
7 | network_0/router_level2_5 |   Requesting VC 0 at output 13 (in_pri: 0, out_pri: 0).
7 | network_0/router_level2_5 |   Requesting VC 1 at output 13 (in_pri: 0, out_pri: 0).
7 | network_0/router_level2_5 |   Requesting VC 2 at output 13 (in_pri: 0, out_pri: 0).
7 | network_0/router_level2_5 |   Requesting VC 3 at output 13 (in_pri: 0, out_pri: 0).
7 | network_0/router_level2_5/vc_allocator | Input requests = [ 1 -> [ 52@0 53@0 54@0 55@0 ]  5 -> [ 52@0 53@0 54@0 55@0 ]  16 -> [ 37@0 38@0 39@0 ]  17 -> [ 37@0 38@0 39@0 ]  25 -> [ 45@0 46@0 47@0 ]  28 -> [ 37@0 38@0 39@0 ]  29 -> [ 37@0 38@0 39@0 ]  ], output requests = [ 37 -> [ 16@0 17@0 28@0 29@0 ]  38 -> [ 16@0 17@0 28@0 29@0 ]  39 -> [ 16@0 17@0 28@0 29@0 ]  45 -> [ 25@0 ]  46 -> [ 25@0 ]  47 -> [ 25@0 ]  52 -> [ 1@0 5@0 ]  53 -> [ 1@0 5@0 ]  54 -> [ 1@0 5@0 ]  55 -> [ 1@0 5@0 ]  ].
7 | network_0/router_level2_5/vc_allocator | Input grants = [ 1 -> 52  16 -> 37  25 -> 45  ], output grants = [ 37 -> 16  45 -> 25  52 -> 1  ].
7 | network_0/router_level2_5 | VC allocation failed for VC 1 at input 1.
7 | network_0/router_level2_5 | Beginning switch allocation for VC 0 at input 0 (front: 1).
7 | network_0/router_level2_5 |   Requesting output 11.0 (non-spec, pri: 0).
7 | network_0/router_level2_5 | Beginning switch allocation for VC 0 at input 1 (front: 4).
7 | network_0/router_level2_5 |   Requesting output 14.0 (non-spec, pri: 0).
7 | network_0/router_level2_5/sw_allocator | Input requests = [ 0 -> [ 11@0 ]  1 -> [ 14@0 ]  3 -> [ 9@0 ]  6 -> [ 10@0 ]  ], output requests = [ 9 -> [ 3@0 ]  10 -> [ 6@0 ]  11 -> [ 0@0 ]  14 -> [ 1@0 ]  ].
7 | network_0/router_level2_5/sw_allocator | Input grants = [ 0 -> 11  1 -> 14  3 -> 9  6 -> 10  ], output grants = [ 9 -> 3  10 -> 6  11 -> 0  14 -> 1  ].
7 | network_0/router_level2_5 | Assigning output 11.0 to VC 0 at input 0.0.
7 | network_0/router_level2_5 | Assigning output 14.0 to VC 0 at input 1.0.
7 | network_0/router_level2_5 | Completed VC allocation for VC 1 at input 1 (front: 6).
7 | network_0/router_level2_5 |   No output VC allocated.
7 | network_0/router_level2_5 | Completed switch allocation for VC 0 at input 0 (front: 1).
7 | network_0/router_level2_5 |   Scheduling switch connection from input 0.0 to output 11.0.
7 | network_0/router_level2_5 | Updating lookahead routing information for flit 1.
7 | network_0/router_level2_5 | Completed switch allocation for VC 0 at input 1 (front: 4).
7 | network_0/router_level2_5 |   Scheduling switch connection from input 1.0 to output 14.0.
7 | network_0/router_level2_5 | Updating lookahead routing information for flit 4.
7 | network_0/router_level2_6 | Beginning switch allocation for VC 0 at input 1 (front: 10).
7 | network_0/router_level2_6 |   Requesting output 13.0 (non-spec, pri: 0).
7 | network_0/router_level2_6/sw_allocator | Input requests = [ 1 -> [ 13@0 ]  3 -> [ 15@0 ]  5 -> [ 14@0 ]  ], output requests = [ 13 -> [ 1@0 ]  14 -> [ 5@0 ]  15 -> [ 3@0 ]  ].
7 | network_0/router_level2_6/sw_allocator | Input grants = [ 1 -> 13  3 -> 15  5 -> 14  ], output grants = [ 13 -> 1  14 -> 5  15 -> 3  ].
7 | network_0/router_level2_6 | Assigning output 13.0 to VC 0 at input 1.0.
7 | network_0/router_level2_6 | Completed switch allocation for VC 0 at input 1 (front: 10).
7 | network_0/router_level2_6 |   Scheduling switch connection from input 1.0 to output 13.0.
7 | network_0/router_level2_6 | Updating lookahead routing information for flit 10.
7 | network_0/router_level2_7 | Beginning switch allocation for VC 0 at input 0 (front: 3).
7 | network_0/router_level2_7 |   Requesting output 15.0 (non-spec, pri: 0).
7 | network_0/router_level2_7 | Beginning switch allocation for VC 0 at input 1 (front: 9).
7 | network_0/router_level2_7 |   Requesting output 10.0 (non-spec, pri: 0).
7 | network_0/router_level2_7/sw_allocator | Input requests = [ 0 -> [ 15@0 ]  1 -> [ 10@0 ]  2 -> [ 9@0 ]  3 -> [ 12@0 ]  4 -> [ 13@0 ]  5 -> [ 8@0 ]  ], output requests = [ 8 -> [ 5@0 ]  9 -> [ 2@0 ]  10 -> [ 1@0 ]  12 -> [ 3@0 ]  13 -> [ 4@0 ]  15 -> [ 0@0 ]  ].
7 | network_0/router_level2_7/sw_allocator | Input grants = [ 0 -> 15  1 -> 10  2 -> 9  3 -> 12  4 -> 13  5 -> 8  ], output grants = [ 8 -> 5  9 -> 2  10 -> 1  12 -> 3  13 -> 4  15 -> 0  ].
7 | network_0/router_level2_7 | Assigning output 15.0 to VC 0 at input 0.0.
7 | network_0/router_level2_7 | Assigning output 10.0 to VC 0 at input 1.0.
7 | network_0/router_level2_7 | Completed switch allocation for VC 0 at input 0 (front: 3).
7 | network_0/router_level2_7 |   Scheduling switch connection from input 0.0 to output 15.0.
7 | network_0/router_level2_7 | Updating lookahead routing information for flit 3.
7 | network_0/router_level2_7 | Completed switch allocation for VC 0 at input 1 (front: 9).
7 | network_0/router_level2_7 |   Scheduling switch connection from input 1.0 to output 10.0.
7 | network_0/router_level2_7 | Updating lookahead routing information for flit 9.
7 | network_0/router_level3_1 | Beginning crossbar traversal for flit 8 from input 5.0 to output 13.0.
7 | network_0/router_level3_1 | Completed crossbar traversal for flit 8 from input 5.0 to output 13.0.
7 | network_0/router_level3_1 | Buffering flit 8 at output 13.
7 | network_0/network_0_fchan_20493 | Completed channel traversal for flit 7.
7 | network_0/router_level3_1 | Sending flit 8 to channel at output 13.
8 | network_0/network_0_fchan_20493 | Beginning channel traversal for flit 8 with delay 1.
8 | network_0/router_level2_5 | Received flit 7 from channel at input 1.
8 | network_0/router_level2_4 | Beginning crossbar traversal for flit 2 from input 0.0 to output 9.0.
8 | network_0/router_level2_4 | Beginning crossbar traversal for flit 5 from input 1.0 to output 13.0.
8 | network_0/router_level2_4 | Completed crossbar traversal for flit 2 from input 0.0 to output 9.0.
8 | network_0/router_level2_4 | Buffering flit 2 at output 9.
8 | network_0/router_level2_4 | Completed crossbar traversal for flit 5 from input 1.0 to output 13.0.
8 | network_0/router_level2_4 | Buffering flit 5 at output 13.
8 | network_0/router_level2_5 | Adding flit 7 to VC 0 at input 1 (state: idle, empty).
8 | network_0/router_level2_5 | Using precomputed lookahead routing information for VC 0 at input 1 (front: 7).
8 | network_0/router_level2_5/buf_1/vc_0 | Changing state from idle to vc_alloc.
8 | network_0/router_level2_5 | Beginning VC allocation for VC 1 at input 1 (front: 6).
8 | network_0/router_level2_5 |   VC 0 at output 13 is in use by VC 1 at input 0 (front flit: 2827).
8 | network_0/router_level2_5 |   Requesting VC 1 at output 13 (in_pri: 0, out_pri: 0).
8 | network_0/router_level2_5 |   Requesting VC 2 at output 13 (in_pri: 0, out_pri: 0).
8 | network_0/router_level2_5 |   Requesting VC 3 at output 13 (in_pri: 0, out_pri: 0).
8 | network_0/router_level2_5 | Beginning VC allocation for VC 0 at input 1 (front: 7).
8 | network_0/router_level2_5 |   Requesting VC 0 at output 14 (in_pri: 0, out_pri: 0).
8 | network_0/router_level2_5 |   Requesting VC 1 at output 14 (in_pri: 0, out_pri: 0).
8 | network_0/router_level2_5 |   Requesting VC 2 at output 14 (in_pri: 0, out_pri: 0).
8 | network_0/router_level2_5 |   Requesting VC 3 at output 14 (in_pri: 0, out_pri: 0).
8 | network_0/router_level2_5/vc_allocator | Input requests = [ 4 -> [ 56@0 57@0 58@0 59@0 ]  5 -> [ 53@0 54@0 55@0 ]  12 -> [ 40@0 41@0 42@0 43@0 ]  17 -> [ 36@0 38@0 39@0 ]  20 -> [ 48@0 49@0 50@0 51@0 ]  24 -> [ 48@0 49@0 50@0 51@0 ]  28 -> [ 36@0 38@0 39@0 ]  29 -> [ 36@0 38@0 39@0 ]  ], output requests = [ 36 -> [ 17@0 28@0 29@0 ]  38 -> [ 17@0 28@0 29@0 ]  39 -> [ 17@0 28@0 29@0 ]  40 -> [ 12@0 ]  41 -> [ 12@0 ]  42 -> [ 12@0 ]  43 -> [ 12@0 ]  48 -> [ 20@0 24@0 ]  49 -> [ 20@0 24@0 ]  50 -> [ 20@0 24@0 ]  51 -> [ 20@0 24@0 ]  53 -> [ 5@0 ]  54 -> [ 5@0 ]  55 -> [ 5@0 ]  56 -> [ 4@0 ]  57 -> [ 4@0 ]  58 -> [ 4@0 ]  59 -> [ 4@0 ]  ].
8 | network_0/router_level2_5/vc_allocator | Input grants = [ 4 -> 57  5 -> 53  12 -> 40  17 -> 36  20 -> 48  ], output grants = [ 36 -> 17  40 -> 12  48 -> 20  53 -> 5  57 -> 4  ].
8 | network_0/router_level2_5 | Assigning VC 1 at output 13 to VC 1 at input 1.
8 | network_0/router_level2_5 | Assigning VC 1 at output 14 to VC 0 at input 1.
8 | network_0/router_level2_5 | Beginning crossbar traversal for flit 1 from input 0.0 to output 11.0.
8 | network_0/router_level2_5 | Beginning crossbar traversal for flit 4 from input 1.0 to output 14.0.
8 | network_0/router_level2_5 | Completed VC allocation for VC 1 at input 1 (front: 6).
8 | network_0/router_level2_5 |   Acquiring assigned VC 1 at output 13.
8 | network_0/router_level2_5/buf_1/vc_1 | Changing state from vc_alloc to active.
8 | network_0/router_level2_5 | Completed VC allocation for VC 0 at input 1 (front: 7).
8 | network_0/router_level2_5 |   Acquiring assigned VC 1 at output 14.
8 | network_0/router_level2_5/buf_1/vc_0 | Changing state from vc_alloc to active.
8 | network_0/router_level2_5 | Completed crossbar traversal for flit 1 from input 0.0 to output 11.0.
8 | network_0/router_level2_5 | Buffering flit 1 at output 11.
8 | network_0/router_level2_5 | Completed crossbar traversal for flit 4 from input 1.0 to output 14.0.
8 | network_0/router_level2_5 | Buffering flit 4 at output 14.
8 | network_0/router_level2_6 | Beginning crossbar traversal for flit 10 from input 1.0 to output 13.0.
8 | network_0/router_level2_6 | Completed crossbar traversal for flit 10 from input 1.0 to output 13.0.
8 | network_0/router_level2_6 | Buffering flit 10 at output 13.
8 | network_0/router_level2_7 | Beginning crossbar traversal for flit 3 from input 0.0 to output 15.0.
8 | network_0/router_level2_7 | Beginning crossbar traversal for flit 9 from input 1.0 to output 10.0.
8 | network_0/router_level2_7 | Completed crossbar traversal for flit 3 from input 0.0 to output 15.0.
8 | network_0/router_level2_7 | Buffering flit 3 at output 15.
8 | network_0/router_level2_7 | Completed crossbar traversal for flit 9 from input 1.0 to output 10.0.
8 | network_0/router_level2_7 | Buffering flit 9 at output 10.
8 | network_0/network_0_fchan_20493 | Completed channel traversal for flit 8.
8 | network_0/router_level2_4 | Sending flit 2 to channel at output 9.
8 | network_0/router_level2_4 | Sending flit 5 to channel at output 13.
8 | network_0/router_level2_5 | Sending flit 1 to channel at output 11.
8 | network_0/router_level2_5 | Sending flit 4 to channel at output 14.
8 | network_0/router_level2_6 | Sending flit 10 to channel at output 13.
8 | network_0/router_level2_7 | Sending flit 9 to channel at output 10.
8 | network_0/router_level2_7 | Sending flit 3 to channel at output 15.
9 | network_0/network_0_fchan_12321 | Beginning channel traversal for flit 2 with delay 1.
9 | network_0/network_0_fchan_12325 | Beginning channel traversal for flit 5 with delay 1.
9 | network_0/network_0_fchan_12331 | Beginning channel traversal for flit 1 with delay 1.
9 | network_0/network_0_fchan_12334 | Beginning channel traversal for flit 4 with delay 1.
9 | network_0/network_0_fchan_12341 | Beginning channel traversal for flit 10 with delay 1.
9 | network_0/network_0_fchan_12346 | Beginning channel traversal for flit 9 with delay 1.
9 | network_0/network_0_fchan_12351 | Beginning channel traversal for flit 3 with delay 1.
9 | network_0/router_level2_5 | Received flit 8 from channel at input 1.
9 | network_0/router_level2_5 | Adding flit 8 to VC 1 at input 1 (state: active, front: 6).
9 | network_0/router_level2_5 | Beginning switch allocation for VC 1 at input 1 (front: 6).
9 | network_0/router_level2_5 |   Requesting output 13.0 (non-spec, pri: 0).
9 | network_0/router_level2_5 | Beginning switch allocation for VC 0 at input 1 (front: 7).
9 | network_0/router_level2_5 |   Requesting output 14.0 (non-spec, pri: 0).
9 | network_0/router_level2_5/sw_allocator | Input requests = [ 1 -> [ 13@0 14@0 ]  3 -> [ 10@0 ]  4 -> [ 9@0 ]  5 -> [ 12@0 ]  ], output requests = [ 9 -> [ 4@0 ]  10 -> [ 3@0 ]  12 -> [ 5@0 ]  13 -> [ 1@0 ]  14 -> [ 1@0 ]  ].
9 | network_0/router_level2_5/sw_allocator | Input grants = [ 1 -> 13  3 -> 10  4 -> 9  5 -> 12  ], output grants = [ 9 -> 4  10 -> 3  12 -> 5  13 -> 1  ].
9 | network_0/router_level2_5 | Assigning output 13.0 to VC 1 at input 1.0.
9 | network_0/router_level2_5 | Switch allocation failed for VC 0 at input 1: Granted to VC 1.
9 | network_0/router_level2_5 | Completed switch allocation for VC 1 at input 1 (front: 6).
9 | network_0/router_level2_5 |   Scheduling switch connection from input 1.0 to output 13.0.
9 | network_0/router_level2_5 | Updating lookahead routing information for flit 6.
9 | network_0/router_level2_5 | Using precomputed lookahead routing information for VC 1 at input 1 (front: 8).
9 | network_0/router_level2_5/buf_1/vc_1 | Changing state from active to vc_alloc.
9 | network_0/router_level2_5 | Completed switch allocation for VC 0 at input 1 (front: 7).
9 | network_0/router_level2_5 |   No output port allocated.
9 | network_0/network_0_fchan_12321 | Completed channel traversal for flit 2.
9 | network_0/network_0_fchan_12325 | Completed channel traversal for flit 5.
9 | network_0/network_0_fchan_12331 | Completed channel traversal for flit 1.
9 | network_0/network_0_fchan_12334 | Completed channel traversal for flit 4.
9 | network_0/network_0_fchan_12341 | Completed channel traversal for flit 10.
9 | network_0/network_0_fchan_12346 | Completed channel traversal for flit 9.
9 | network_0/network_0_fchan_12351 | Completed channel traversal for flit 3.
10 | network_0/router_level1_12 | Received flit 2 from channel at input 0.
10 | network_0/router_level1_23 | Received flit 9 from channel at input 0.
10 | network_0/router_level1_29 | Received flit 1 from channel at input 0.
10 | network_0/router_level1_44 | Received flit 5 from channel at input 0.
10 | network_0/router_level1_46 | Received flit 10 from channel at input 0.
10 | network_0/router_level1_53 | Received flit 4 from channel at input 0.
10 | network_0/router_level1_63 | Received flit 3 from channel at input 0.
10 | network_0/router_level1_12 | Adding flit 2 to VC 0 at input 0 (state: idle, empty).
10 | network_0/router_level1_12 | Using precomputed lookahead routing information for VC 0 at input 0 (front: 2).
10 | network_0/router_level1_12/buf_0/vc_0 | Changing state from idle to vc_alloc.
10 | network_0/router_level1_12 | Beginning VC allocation for VC 0 at input 0 (front: 2).
10 | network_0/router_level1_12 |   Requesting VC 0 at output 4 (in_pri: 0, out_pri: 0).
10 | network_0/router_level1_12 |   Requesting VC 1 at output 4 (in_pri: 0, out_pri: 0).
10 | network_0/router_level1_12 |   Requesting VC 2 at output 4 (in_pri: 0, out_pri: 0).
10 | network_0/router_level1_12 |   Requesting VC 3 at output 4 (in_pri: 0, out_pri: 0).
10 | network_0/router_level1_12/vc_allocator | Input requests = [ 0 -> [ 16@0 17@0 18@0 19@0 ]  4 -> [ 32@0 33@0 34@0 35@0 ]  20 -> [ 48@0 49@0 50@0 51@0 ]  ], output requests = [ 16 -> [ 0@0 ]  17 -> [ 0@0 ]  18 -> [ 0@0 ]  19 -> [ 0@0 ]  32 -> [ 4@0 ]  33 -> [ 4@0 ]  34 -> [ 4@0 ]  35 -> [ 4@0 ]  48 -> [ 20@0 ]  49 -> [ 20@0 ]  50 -> [ 20@0 ]  51 -> [ 20@0 ]  ].
10 | network_0/router_level1_12/vc_allocator | Input grants = [ 0 -> 16  4 -> 32  20 -> 48  ], output grants = [ 16 -> 0  32 -> 4  48 -> 20  ].
10 | network_0/router_level1_12 | Assigning VC 0 at output 4 to VC 0 at input 0.
10 | network_0/router_level1_12 | Completed VC allocation for VC 0 at input 0 (front: 2).
10 | network_0/router_level1_12 |   Acquiring assigned VC 0 at output 4.
10 | network_0/router_level1_12/buf_0/vc_0 | Changing state from vc_alloc to active.
10 | network_0/router_level1_23 | Adding flit 9 to VC 0 at input 0 (state: idle, empty).
10 | network_0/router_level1_23 | Using precomputed lookahead routing information for VC 0 at input 0 (front: 9).
10 | network_0/router_level1_23/buf_0/vc_0 | Changing state from idle to vc_alloc.
10 | network_0/router_level1_23 | Beginning VC allocation for VC 0 at input 0 (front: 9).
10 | network_0/router_level1_23 |   Requesting VC 0 at output 14 (in_pri: 0, out_pri: 0).
10 | network_0/router_level1_23 |   Requesting VC 1 at output 14 (in_pri: 0, out_pri: 0).
10 | network_0/router_level1_23 |   Requesting VC 2 at output 14 (in_pri: 0, out_pri: 0).
10 | network_0/router_level1_23 |   Requesting VC 3 at output 14 (in_pri: 0, out_pri: 0).
10 | network_0/router_level1_23/vc_allocator | Input requests = [ 0 -> [ 56@0 57@0 58@0 59@0 ]  4 -> [ 40@0 41@0 42@0 43@0 ]  16 -> [ 60@0 61@0 62@0 63@0 ]  ], output requests = [ 40 -> [ 4@0 ]  41 -> [ 4@0 ]  42 -> [ 4@0 ]  43 -> [ 4@0 ]  56 -> [ 0@0 ]  57 -> [ 0@0 ]  58 -> [ 0@0 ]  59 -> [ 0@0 ]  60 -> [ 16@0 ]  61 -> [ 16@0 ]  62 -> [ 16@0 ]  63 -> [ 16@0 ]  ].
10 | network_0/router_level1_23/vc_allocator | Input grants = [ 0 -> 56  4 -> 40  16 -> 60  ], output grants = [ 40 -> 4  56 -> 0  60 -> 16  ].
10 | network_0/router_level1_23 | Assigning VC 0 at output 14 to VC 0 at input 0.
10 | network_0/router_level1_23 | Completed VC allocation for VC 0 at input 0 (front: 9).
10 | network_0/router_level1_23 |   Acquiring assigned VC 0 at output 14.
10 | network_0/router_level1_23/buf_0/vc_0 | Changing state from vc_alloc to active.
10 | network_0/router_level1_29 | Adding flit 1 to VC 0 at input 0 (state: idle, empty).
10 | network_0/router_level1_29 | Using precomputed lookahead routing information for VC 0 at input 0 (front: 1).
10 | network_0/router_level1_29/buf_0/vc_0 | Changing state from idle to vc_alloc.
10 | network_0/router_level1_29 | Beginning VC allocation for VC 0 at input 0 (front: 1).
10 | network_0/router_level1_29 |   Requesting VC 0 at output 3 (in_pri: 0, out_pri: 0).
10 | network_0/router_level1_29 |   Requesting VC 1 at output 3 (in_pri: 0, out_pri: 0).
10 | network_0/router_level1_29 |   Requesting VC 2 at output 3 (in_pri: 0, out_pri: 0).
10 | network_0/router_level1_29 |   Requesting VC 3 at output 3 (in_pri: 0, out_pri: 0).
10 | network_0/router_level1_29/vc_allocator | Input requests = [ 0 -> [ 12@0 13@0 14@0 15@0 ]  4 -> [ 36@0 37@0 38@0 39@0 ]  12 -> [ 32@0 33@0 34@0 35@0 ]  16 -> [ 12@0 13@0 14@0 15@0 ]  20 -> [ 48@0 49@0 50@0 51@0 ]  24 -> [ 60@0 61@0 62@0 63@0 ]  ], output requests = [ 12 -> [ 0@0 16@0 ]  13 -> [ 0@0 16@0 ]  14 -> [ 0@0 16@0 ]  15 -> [ 0@0 16@0 ]  32 -> [ 12@0 ]  33 -> [ 12@0 ]  34 -> [ 12@0 ]  35 -> [ 12@0 ]  36 -> [ 4@0 ]  37 -> [ 4@0 ]  38 -> [ 4@0 ]  39 -> [ 4@0 ]  48 -> [ 20@0 ]  49 -> [ 20@0 ]  50 -> [ 20@0 ]  51 -> [ 20@0 ]  60 -> [ 24@0 ]  61 -> [ 24@0 ]  62 -> [ 24@0 ]  63 -> [ 24@0 ]  ].
10 | network_0/router_level1_29/vc_allocator | Input grants = [ 0 -> 12  4 -> 36  12 -> 32  20 -> 48  24 -> 60  ], output grants = [ 12 -> 0  32 -> 12  36 -> 4  48 -> 20  60 -> 24  ].
10 | network_0/router_level1_29 | Assigning VC 0 at output 3 to VC 0 at input 0.
10 | network_0/router_level1_29 | Completed VC allocation for VC 0 at input 0 (front: 1).
10 | network_0/router_level1_29 |   Acquiring assigned VC 0 at output 3.
10 | network_0/router_level1_29/buf_0/vc_0 | Changing state from vc_alloc to active.
10 | network_0/router_level1_44 | Adding flit 5 to VC 0 at input 0 (state: idle, empty).
10 | network_0/router_level1_44 | Using precomputed lookahead routing information for VC 0 at input 0 (front: 5).
10 | network_0/router_level1_44/buf_0/vc_0 | Changing state from idle to vc_alloc.
10 | network_0/router_level1_44 | Beginning VC allocation for VC 0 at input 0 (front: 5).
10 | network_0/router_level1_44 |   Requesting VC 0 at output 9 (in_pri: 0, out_pri: 0).
10 | network_0/router_level1_44 |   Requesting VC 1 at output 9 (in_pri: 0, out_pri: 0).
10 | network_0/router_level1_44 |   Requesting VC 2 at output 9 (in_pri: 0, out_pri: 0).
10 | network_0/router_level1_44 |   Requesting VC 3 at output 9 (in_pri: 0, out_pri: 0).
10 | network_0/router_level1_44/vc_allocator | Input requests = [ 0 -> [ 36@0 37@0 38@0 39@0 ]  4 -> [ 40@0 41@0 42@0 43@0 ]  24 -> [ 44@0 45@0 46@0 47@0 ]  ], output requests = [ 36 -> [ 0@0 ]  37 -> [ 0@0 ]  38 -> [ 0@0 ]  39 -> [ 0@0 ]  40 -> [ 4@0 ]  41 -> [ 4@0 ]  42 -> [ 4@0 ]  43 -> [ 4@0 ]  44 -> [ 24@0 ]  45 -> [ 24@0 ]  46 -> [ 24@0 ]  47 -> [ 24@0 ]  ].
10 | network_0/router_level1_44/vc_allocator | Input grants = [ 0 -> 36  4 -> 40  24 -> 44  ], output grants = [ 36 -> 0  40 -> 4  44 -> 24  ].
10 | network_0/router_level1_44 | Assigning VC 0 at output 9 to VC 0 at input 0.
10 | network_0/router_level1_44 | Completed VC allocation for VC 0 at input 0 (front: 5).
10 | network_0/router_level1_44 |   Acquiring assigned VC 0 at output 9.
10 | network_0/router_level1_44/buf_0/vc_0 | Changing state from vc_alloc to active.
10 | network_0/router_level1_46 | Adding flit 10 to VC 0 at input 0 (state: idle, empty).
10 | network_0/router_level1_46 | Using precomputed lookahead routing information for VC 0 at input 0 (front: 10).
10 | network_0/router_level1_46/buf_0/vc_0 | Changing state from idle to vc_alloc.
10 | network_0/router_level1_46 | Beginning VC allocation for VC 0 at input 0 (front: 10).
10 | network_0/router_level1_46 |   Requesting VC 0 at output 9 (in_pri: 0, out_pri: 0).
10 | network_0/router_level1_46 |   Requesting VC 1 at output 9 (in_pri: 0, out_pri: 0).
10 | network_0/router_level1_46 |   Requesting VC 2 at output 9 (in_pri: 0, out_pri: 0).
10 | network_0/router_level1_46 |   Requesting VC 3 at output 9 (in_pri: 0, out_pri: 0).
10 | network_0/router_level1_46/vc_allocator | Input requests = [ 0 -> [ 36@0 37@0 38@0 39@0 ]  12 -> [ 40@0 41@0 42@0 43@0 ]  24 -> [ 44@0 45@0 46@0 47@0 ]  ], output requests = [ 36 -> [ 0@0 ]  37 -> [ 0@0 ]  38 -> [ 0@0 ]  39 -> [ 0@0 ]  40 -> [ 12@0 ]  41 -> [ 12@0 ]  42 -> [ 12@0 ]  43 -> [ 12@0 ]  44 -> [ 24@0 ]  45 -> [ 24@0 ]  46 -> [ 24@0 ]  47 -> [ 24@0 ]  ].
10 | network_0/router_level1_46/vc_allocator | Input grants = [ 0 -> 36  12 -> 40  24 -> 44  ], output grants = [ 36 -> 0  40 -> 12  44 -> 24  ].
10 | network_0/router_level1_46 | Assigning VC 0 at output 9 to VC 0 at input 0.
10 | network_0/router_level1_46 | Completed VC allocation for VC 0 at input 0 (front: 10).
10 | network_0/router_level1_46 |   Acquiring assigned VC 0 at output 9.
10 | network_0/router_level1_46/buf_0/vc_0 | Changing state from vc_alloc to active.
10 | network_0/router_level1_53 | Adding flit 4 to VC 0 at input 0 (state: idle, empty).
10 | network_0/router_level1_53 | Using precomputed lookahead routing information for VC 0 at input 0 (front: 4).
10 | network_0/router_level1_53/buf_0/vc_0 | Changing state from idle to vc_alloc.
10 | network_0/router_level1_53 | Beginning VC allocation for VC 0 at input 0 (front: 4).
10 | network_0/router_level1_53 |   Requesting VC 0 at output 9 (in_pri: 0, out_pri: 0).
10 | network_0/router_level1_53 |   Requesting VC 1 at output 9 (in_pri: 0, out_pri: 0).
10 | network_0/router_level1_53 |   Requesting VC 2 at output 9 (in_pri: 0, out_pri: 0).
10 | network_0/router_level1_53 |   Requesting VC 3 at output 9 (in_pri: 0, out_pri: 0).
10 | network_0/router_level1_53/vc_allocator | Input requests = [ 0 -> [ 36@0 37@0 38@0 39@0 ]  16 -> [ 32@0 33@0 34@0 35@0 ]  20 -> [ 48@0 49@0 50@0 51@0 ]  24 -> [ 36@0 37@0 38@0 39@0 ]  ], output requests = [ 32 -> [ 16@0 ]  33 -> [ 16@0 ]  34 -> [ 16@0 ]  35 -> [ 16@0 ]  36 -> [ 0@0 24@0 ]  37 -> [ 0@0 24@0 ]  38 -> [ 0@0 24@0 ]  39 -> [ 0@0 24@0 ]  48 -> [ 20@0 ]  49 -> [ 20@0 ]  50 -> [ 20@0 ]  51 -> [ 20@0 ]  ].
10 | network_0/router_level1_53/vc_allocator | Input grants = [ 0 -> 36  16 -> 32  20 -> 48  ], output grants = [ 32 -> 16  36 -> 0  48 -> 20  ].
10 | network_0/router_level1_53 | Assigning VC 0 at output 9 to VC 0 at input 0.
10 | network_0/router_level1_53 | Completed VC allocation for VC 0 at input 0 (front: 4).
10 | network_0/router_level1_53 |   Acquiring assigned VC 0 at output 9.
10 | network_0/router_level1_53/buf_0/vc_0 | Changing state from vc_alloc to active.
10 | network_0/router_level1_63 | Adding flit 3 to VC 0 at input 0 (state: idle, empty).
10 | network_0/router_level1_63 | Using precomputed lookahead routing information for VC 0 at input 0 (front: 3).
10 | network_0/router_level1_63/buf_0/vc_0 | Changing state from idle to vc_alloc.
10 | network_0/router_level1_63 | Beginning VC allocation for VC 0 at input 0 (front: 3).
10 | network_0/router_level1_63 |   Requesting VC 0 at output 5 (in_pri: 0, out_pri: 0).
10 | network_0/router_level1_63 |   Requesting VC 1 at output 5 (in_pri: 0, out_pri: 0).
10 | network_0/router_level1_63 |   Requesting VC 2 at output 5 (in_pri: 0, out_pri: 0).
10 | network_0/router_level1_63 |   Requesting VC 3 at output 5 (in_pri: 0, out_pri: 0).
10 | network_0/router_level1_63/vc_allocator | Input requests = [ 0 -> [ 20@0 21@0 22@0 23@0 ]  4 -> [ 48@0 49@0 50@0 51@0 ]  8 -> [ 56@0 57@0 58@0 59@0 ]  16 -> [ 24@0 25@0 26@0 27@0 ]  ], output requests = [ 20 -> [ 0@0 ]  21 -> [ 0@0 ]  22 -> [ 0@0 ]  23 -> [ 0@0 ]  24 -> [ 16@0 ]  25 -> [ 16@0 ]  26 -> [ 16@0 ]  27 -> [ 16@0 ]  48 -> [ 4@0 ]  49 -> [ 4@0 ]  50 -> [ 4@0 ]  51 -> [ 4@0 ]  56 -> [ 8@0 ]  57 -> [ 8@0 ]  58 -> [ 8@0 ]  59 -> [ 8@0 ]  ].
10 | network_0/router_level1_63/vc_allocator | Input grants = [ 0 -> 20  4 -> 48  8 -> 56  16 -> 24  ], output grants = [ 20 -> 0  24 -> 16  48 -> 4  56 -> 8  ].
10 | network_0/router_level1_63 | Assigning VC 0 at output 5 to VC 0 at input 0.
10 | network_0/router_level1_63 | Completed VC allocation for VC 0 at input 0 (front: 3).
10 | network_0/router_level1_63 |   Acquiring assigned VC 0 at output 5.
10 | network_0/router_level1_63/buf_0/vc_0 | Changing state from vc_alloc to active.
10 | network_0/router_level2_5 | Beginning VC allocation for VC 1 at input 1 (front: 8).
10 | network_0/router_level2_5 |   VC 0 at output 11 is in use by VC 0 at input 2 (front flit: 8591).
10 | network_0/router_level2_5 |   Requesting VC 1 at output 11 (in_pri: 0, out_pri: 0).
10 | network_0/router_level2_5 |   Requesting VC 2 at output 11 (in_pri: 0, out_pri: 0).
10 | network_0/router_level2_5 |   Requesting VC 3 at output 11 (in_pri: 0, out_pri: 0).
10 | network_0/router_level2_5/vc_allocator | Input requests = [ 0 -> [ 60@0 61@0 62@0 63@0 ]  5 -> [ 45@0 46@0 47@0 ]  9 -> [ 40@0 42@0 43@0 ]  17 -> [ 60@0 61@0 62@0 63@0 ]  21 -> [ 40@0 42@0 43@0 ]  28 -> [ 36@0 38@0 39@0 ]  29 -> [ 36@0 38@0 39@0 ]  ], output requests = [ 36 -> [ 28@0 29@0 ]  38 -> [ 28@0 29@0 ]  39 -> [ 28@0 29@0 ]  40 -> [ 9@0 21@0 ]  42 -> [ 9@0 21@0 ]  43 -> [ 9@0 21@0 ]  45 -> [ 5@0 ]  46 -> [ 5@0 ]  47 -> [ 5@0 ]  60 -> [ 0@0 17@0 ]  61 -> [ 0@0 17@0 ]  62 -> [ 0@0 17@0 ]  63 -> [ 0@0 17@0 ]  ].
10 | network_0/router_level2_5/vc_allocator | Input grants = [ 0 -> 60  5 -> 45  21 -> 40  28 -> 36  ], output grants = [ 36 -> 28  40 -> 21  45 -> 5  60 -> 0  ].
10 | network_0/router_level2_5 | Assigning VC 1 at output 11 to VC 1 at input 1.
10 | network_0/router_level2_5 | Beginning switch allocation for VC 0 at input 1 (front: 7).
10 | network_0/router_level2_5 |   Requesting output 14.0 (non-spec, pri: 0).
10 | network_0/router_level2_5/sw_allocator | Input requests = [ 1 -> [ 14@0 ]  2 -> [ 11@0 ]  4 -> [ 10@0 ]  6 -> [ 9@0 12@0 ]  ], output requests = [ 9 -> [ 6@0 ]  10 -> [ 4@0 ]  11 -> [ 2@0 ]  12 -> [ 6@0 ]  14 -> [ 1@0 ]  ].
10 | network_0/router_level2_5/sw_allocator | Input grants = [ 1 -> 14  2 -> 11  4 -> 10  6 -> 12  ], output grants = [ 10 -> 4  11 -> 2  12 -> 6  14 -> 1  ].
10 | network_0/router_level2_5 | Assigning output 14.0 to VC 0 at input 1.0.
10 | network_0/router_level2_5 | Beginning crossbar traversal for flit 6 from input 1.0 to output 13.0.
10 | network_0/router_level2_5 | Completed VC allocation for VC 1 at input 1 (front: 8).
10 | network_0/router_level2_5 |   Acquiring assigned VC 1 at output 11.
10 | network_0/router_level2_5/buf_1/vc_1 | Changing state from vc_alloc to active.
10 | network_0/router_level2_5 | Completed switch allocation for VC 0 at input 1 (front: 7).
10 | network_0/router_level2_5 |   Scheduling switch connection from input 1.0 to output 14.0.
10 | network_0/router_level2_5 | Updating lookahead routing information for flit 7.
10 | network_0/router_level2_5 | Completed crossbar traversal for flit 6 from input 1.0 to output 13.0.
10 | network_0/router_level2_5 | Buffering flit 6 at output 13.
10 | network_0/router_level2_5 | Sending flit 6 to channel at output 13.
11 | network_0/network_0_fchan_12333 | Beginning channel traversal for flit 6 with delay 1.
11 | network_0/router_level1_12 | Beginning switch allocation for VC 0 at input 0 (front: 2).
11 | network_0/router_level1_12 |   Requesting output 4.0 (non-spec, pri: 0).
11 | network_0/router_level1_12/sw_allocator | Input requests = [ 0 -> [ 4@0 ]  1 -> [ 8@0 ]  5 -> [ 12@0 ]  ], output requests = [ 4 -> [ 0@0 ]  8 -> [ 1@0 ]  12 -> [ 5@0 ]  ].
11 | network_0/router_level1_12/sw_allocator | Input grants = [ 0 -> 4  1 -> 8  5 -> 12  ], output grants = [ 4 -> 0  8 -> 1  12 -> 5  ].
11 | network_0/router_level1_12 | Assigning output 4.0 to VC 0 at input 0.0.
11 | network_0/router_level1_12 | Completed switch allocation for VC 0 at input 0 (front: 2).
11 | network_0/router_level1_12 |   Scheduling switch connection from input 0.0 to output 4.0.
11 | network_0/router_level1_12 | Updating lookahead routing information for flit 2.
11 | network_0/router_level1_23 | Beginning switch allocation for VC 0 at input 0 (front: 9).
11 | network_0/router_level1_23 |   Requesting output 14.0 (non-spec, pri: 0).
11 | network_0/router_level1_23/sw_allocator | Input requests = [ 0 -> [ 14@0 ]  1 -> [ 10@0 ]  4 -> [ 15@0 ]  ], output requests = [ 10 -> [ 1@0 ]  14 -> [ 0@0 ]  15 -> [ 4@0 ]  ].
11 | network_0/router_level1_23/sw_allocator | Input grants = [ 0 -> 14  1 -> 10  4 -> 15  ], output grants = [ 10 -> 1  14 -> 0  15 -> 4  ].
11 | network_0/router_level1_23 | Assigning output 14.0 to VC 0 at input 0.0.
11 | network_0/router_level1_23 | Completed switch allocation for VC 0 at input 0 (front: 9).
11 | network_0/router_level1_23 |   Scheduling switch connection from input 0.0 to output 14.0.
11 | network_0/router_level1_23 | Updating lookahead routing information for flit 9.
11 | network_0/router_level1_29 | Beginning switch allocation for VC 0 at input 0 (front: 1).
11 | network_0/router_level1_29 |   Requesting output 3.0 (non-spec, pri: 0).
11 | network_0/router_level1_29/sw_allocator | Input requests = [ 0 -> [ 3@0 ]  1 -> [ 9@0 ]  3 -> [ 8@0 ]  5 -> [ 12@0 ]  6 -> [ 15@0 ]  ], output requests = [ 3 -> [ 0@0 ]  8 -> [ 3@0 ]  9 -> [ 1@0 ]  12 -> [ 5@0 ]  15 -> [ 6@0 ]  ].
[...]
33 | network_0/router_level3_96 |   VC 0 at output 0 is in use by VC 1 at input 10 (front flit: 5728).
33 | network_0/router_level3_96 |   Requesting VC 1 at output 0 (in_pri: 0, out_pri: 0).
33 | network_0/router_level3_96 |   Requesting VC 2 at output 0 (in_pri: 0, out_pri: 0).
33 | network_0/router_level3_96 |   Requesting VC 3 at output 0 (in_pri: 0, out_pri: 0).
33 | network_0/router_level3_96/vc_allocator | Input requests = [ 1 -> [ 32@0 ]  3 -> [ 38@0 39@0 ]  4 -> [ 38@0 39@0 ]  12 -> [ 43@0 ]  13 -> [ 53@0 ]  19 -> [ 45@0 46@0 47@0 ]  26 -> [ 43@0 ]  29 -> [ 56@0 58@0 59@0 ]  30 -> [ 38@0 39@0 ]  31 -> [ 43@0 ]  37 -> [ 16@0 17@0 18@0 19@0 ]  40 -> [ 8@0 10@0 11@0 ]  44 -> [ 16@0 17@0 18@0 19@0 ]  48 -> [ 25@0 26@0 27@0 ]  52 -> [ 1@0 2@0 3@0 ]  ], output requests = [ 1 -> [ 52@0 ]  2 -> [ 52@0 ]  3 -> [ 52@0 ]  8 -> [ 40@0 ]  10 -> [ 40@0 ]  11 -> [ 40@0 ]  16 -> [ 37@0 44@0 ]  17 -> [ 37@0 44@0 ]  18 -> [ 37@0 44@0 ]  19 -> [ 37@0 44@0 ]  25 -> [ 48@0 ]  26 -> [ 48@0 ]  27 -> [ 48@0 ]  32 -> [ 1@0 ]  38 -> [ 3@0 4@0 30@0 ]  39 -> [ 3@0 4@0 30@0 ]  43 -> [ 12@0 26@0 31@0 ]  45 -> [ 19@0 ]  46 -> [ 19@0 ]  47 -> [ 19@0 ]  53 -> [ 13@0 ]  56 -> [ 29@0 ]  58 -> [ 29@0 ]  59 -> [ 29@0 ]  ].
33 | network_0/router_level3_96/vc_allocator | Input grants = [ 1 -> 32  12 -> 43  13 -> 53  19 -> 45  29 -> 56  30 -> 38  37 -> 16  40 -> 8  48 -> 25  52 -> 1  ], output grants = [ 1 -> 52  8 -> 40  16 -> 37  25 -> 48  32 -> 1  38 -> 30  43 -> 12  45 -> 19  53 -> 13  56 -> 29  ].
33 | network_0/router_level3_96 | Assigning VC 1 at output 0 to VC 0 at input 13.
33 | network_0/router_level3_96 | Completed VC allocation for VC 0 at input 13 (front: 7).
33 | network_0/router_level3_96 |   Acquiring assigned VC 1 at output 0.
33 | network_0/router_level3_96/buf_13/vc_0 | Changing state from vc_alloc to active.
34 | network_0/router_level2_109 | Beginning switch allocation for VC 1 at input 11 (front: 8).
34 | network_0/router_level2_109 |   Requesting output 0.0 (non-spec, pri: 0).
34 | network_0/router_level2_109/sw_allocator | Input requests = [ 0 -> [ 11@0 14@0 ]  1 -> [ 8@0 ]  2 -> [ 15@0 ]  3 -> [ 11@0 ]  4 -> [ 10@0 ]  5 -> [ 11@0 12@0 ]  6 -> [ 12@0 ]  9 -> [ 1@0 ]  11 -> [ 0@0 ]  14 -> [ 3@0 ]  15 -> [ 7@0 ]  ], output requests = [ 0 -> [ 11@0 ]  1 -> [ 9@0 ]  3 -> [ 14@0 ]  7 -> [ 15@0 ]  8 -> [ 1@0 ]  10 -> [ 4@0 ]  11 -> [ 0@0 3@0 5@0 ]  12 -> [ 5@0 6@0 ]  14 -> [ 0@0 ]  15 -> [ 2@0 ]  ].
34 | network_0/router_level2_109/sw_allocator | Input grants = [ 1 -> 8  2 -> 15  4 -> 10  5 -> 11  6 -> 12  9 -> 1  11 -> 0  14 -> 3  15 -> 7  ], output grants = [ 0 -> 11  1 -> 9  3 -> 14  7 -> 15  8 -> 1  10 -> 4  11 -> 5  12 -> 6  15 -> 2  ].
34 | network_0/router_level2_109 | Assigning output 0.0 to VC 1 at input 11.0.
34 | network_0/router_level2_109 | Completed switch allocation for VC 1 at input 11 (front: 8).
34 | network_0/router_level2_109 |   Scheduling switch connection from input 11.0 to output 0.0.
34 | network_0/router_level2_109 | Updating lookahead routing information for flit 8.
34 | network_0/router_level3_96 | Beginning switch allocation for VC 0 at input 13 (front: 7).
34 | network_0/router_level3_96 |   Requesting output 0.0 (non-spec, pri: 0).
34 | network_0/router_level3_96/sw_allocator | Input requests = [ 0 -> [ 8@0 ]  1 -> [ 13@0 ]  2 -> [ 9@0 ]  3 -> [ 10@0 12@0 13@0 ]  4 -> [ 8@0 11@0 15@0 ]  5 -> [ 10@0 ]  6 -> [ 8@0 ]  7 -> [ 9@0 14@0 ]  9 -> [ 4@0 ]  10 -> [ 2@0 ]  12 -> [ 6@0 ]  13 -> [ 0@0 ]  15 -> [ 2@0 ]  ], output requests = [ 0 -> [ 13@0 ]  2 -> [ 10@0 15@0 ]  4 -> [ 9@0 ]  6 -> [ 12@0 ]  8 -> [ 0@0 4@0 6@0 ]  9 -> [ 2@0 7@0 ]  10 -> [ 3@0 5@0 ]  11 -> [ 4@0 ]  12 -> [ 3@0 ]  13 -> [ 1@0 3@0 ]  14 -> [ 7@0 ]  15 -> [ 4@0 ]  ].
34 | network_0/router_level3_96/sw_allocator | Input grants = [ 1 -> 13  3 -> 12  4 -> 11  5 -> 10  6 -> 8  7 -> 9  9 -> 4  10 -> 2  12 -> 6  13 -> 0  ], output grants = [ 0 -> 13  2 -> 10  4 -> 9  6 -> 12  8 -> 6  9 -> 7  10 -> 5  11 -> 4  12 -> 3  13 -> 1  ].
34 | network_0/router_level3_96 | Assigning output 0.0 to VC 0 at input 13.0.
34 | network_0/router_level3_96 | Completed switch allocation for VC 0 at input 13 (front: 7).
34 | network_0/router_level3_96 |   Scheduling switch connection from input 13.0 to output 0.0.
35 | network_0/router_level2_109 | Beginning crossbar traversal for flit 8 from input 11.0 to output 0.0.
35 | network_0/router_level2_109 | Completed crossbar traversal for flit 8 from input 11.0 to output 0.0.
35 | network_0/router_level2_109 | Buffering flit 8 at output 0.
35 | network_0/router_level3_96 | Beginning crossbar traversal for flit 7 from input 13.0 to output 0.0.
35 | network_0/router_level3_96 | Completed crossbar traversal for flit 7 from input 13.0 to output 0.0.
35 | network_0/router_level3_96 | Buffering flit 7 at output 0.
35 | network_0/router_level2_109 | Sending flit 8 to channel at output 0.
35 | network_0/router_level3_96 | Sending flit 7 to channel at output 0.
36 | network_0/network_0_fchan_egress768 | Beginning channel traversal for flit 7 with delay 1.
36 | network_0/network_0_fchan_17256 | Beginning channel traversal for flit 8 with delay 1.
36 | network_0/network_0_fchan_egress768 | Completed channel traversal for flit 7.
36 | network_0/network_0_fchan_17256 | Completed channel traversal for flit 8.
37 | node768 | Ejecting flit 7 (packet 7) from VC 1.
37 | network_0/router_level3_104 | Received flit 8 from channel at input 13.
37 | node768 | Injecting credit for VC 1 into subnet 0.
37 | node768 | Retiring flit 7 (packet 7, src = 12, dest = 768, hops = 7, flat = 37).
37 | node768 | Retiring packet 7 (plat = 37, nlat = 37, frag = 0, src = 12, dest = 768).
37 | network_0/router_level3_104 | Adding flit 8 to VC 0 at input 13 (state: idle, empty).
37 | network_0/router_level3_104 | Using precomputed lookahead routing information for VC 0 at input 13 (front: 8).
37 | network_0/router_level3_104/buf_13/vc_0 | Changing state from idle to vc_alloc.
37 | network_0/router_level3_104 | Beginning VC allocation for VC 0 at input 13 (front: 8).
37 | network_0/router_level3_104 |   VC 0 at output 0 is in use by VC 0 at input 10 (front flit: 25768).
37 | network_0/router_level3_104 |   Requesting VC 1 at output 0 (in_pri: 0, out_pri: 0).
37 | network_0/router_level3_104 |   Requesting VC 2 at output 0 (in_pri: 0, out_pri: 0).
37 | network_0/router_level3_104 |   Requesting VC 3 at output 0 (in_pri: 0, out_pri: 0).
37 | network_0/router_level3_104/vc_allocator | Input requests = [ 1 -> [ 52@0 53@0 54@0 55@0 ]  3 -> [ 42@0 43@0 ]  8 -> [ 44@0 46@0 47@0 ]  9 -> [ 42@0 43@0 ]  10 -> [ 36@0 37@0 39@0 ]  13 -> [ 42@0 43@0 ]  15 -> [ 42@0 43@0 ]  19 -> [ 49@0 ]  20 -> [ 49@0 ]  21 -> [ 42@0 43@0 ]  25 -> [ 49@0 ]  29 -> [ 44@0 46@0 47@0 ]  41 -> [ 1@0 2@0 3@0 ]  44 -> [ 16@0 18@0 19@0 ]  52 -> [ 1@0 2@0 3@0 ]  ], output requests = [ 1 -> [ 41@0 52@0 ]  2 -> [ 41@0 52@0 ]  3 -> [ 41@0 52@0 ]  16 -> [ 44@0 ]  18 -> [ 44@0 ]  19 -> [ 44@0 ]  36 -> [ 10@0 ]  37 -> [ 10@0 ]  39 -> [ 10@0 ]  42 -> [ 3@0 9@0 13@0 15@0 21@0 ]  43 -> [ 3@0 9@0 13@0 15@0 21@0 ]  44 -> [ 8@0 29@0 ]  46 -> [ 8@0 29@0 ]  47 -> [ 8@0 29@0 ]  49 -> [ 19@0 20@0 25@0 ]  52 -> [ 1@0 ]  53 -> [ 1@0 ]  54 -> [ 1@0 ]  55 -> [ 1@0 ]  ].
37 | network_0/router_level3_104/vc_allocator | Input grants = [ 1 -> 52  9 -> 42  10 -> 36  19 -> 49  29 -> 44  44 -> 16  52 -> 1  ], output grants = [ 1 -> 52  16 -> 44  36 -> 10  42 -> 9  44 -> 29  49 -> 19  52 -> 1  ].
37 | network_0/router_level3_104 | Assigning VC 1 at output 0 to VC 0 at input 13.
37 | network_0/router_level3_104 | Completed VC allocation for VC 0 at input 13 (front: 8).
37 | network_0/router_level3_104 |   Acquiring assigned VC 1 at output 0.
37 | network_0/router_level3_104/buf_13/vc_0 | Changing state from vc_alloc to active.
38 | network_0/router_level3_104 | Beginning switch allocation for VC 0 at input 13 (front: 8).
38 | network_0/router_level3_104 |   Requesting output 0.0 (non-spec, pri: 0).
38 | network_0/router_level3_104/sw_allocator | Input requests = [ 0 -> [ 13@0 ]  2 -> [ 9@0 10@0 ]  3 -> [ 15@0 ]  4 -> [ 8@0 12@0 14@0 ]  5 -> [ 12@0 ]  6 -> [ 9@0 10@0 ]  7 -> [ 8@0 11@0 ]  11 -> [ 4@0 ]  13 -> [ 0@0 ]  ], output requests = [ 0 -> [ 13@0 ]  4 -> [ 11@0 ]  8 -> [ 4@0 7@0 ]  9 -> [ 2@0 6@0 ]  10 -> [ 2@0 6@0 ]  11 -> [ 7@0 ]  12 -> [ 4@0 5@0 ]  13 -> [ 0@0 ]  14 -> [ 4@0 ]  15 -> [ 3@0 ]  ].
38 | network_0/router_level3_104/sw_allocator | Input grants = [ 0 -> 13  3 -> 15  4 -> 12  6 -> 9  7 -> 8  11 -> 4  13 -> 0  ], output grants = [ 0 -> 13  4 -> 11  8 -> 7  9 -> 6  12 -> 4  13 -> 0  15 -> 3  ].
38 | network_0/router_level3_104 | Assigning output 0.0 to VC 0 at input 13.0.
38 | network_0/router_level3_104 | Completed switch allocation for VC 0 at input 13 (front: 8).
38 | network_0/router_level3_104 |   Scheduling switch connection from input 13.0 to output 0.0.
39 | network_0/router_level3_104 | Beginning crossbar traversal for flit 8 from input 13.0 to output 0.0.
39 | network_0/router_level3_104 | Completed crossbar traversal for flit 8 from input 13.0 to output 0.0.
39 | network_0/router_level3_104 | Buffering flit 8 at output 0.
39 | network_0/router_level3_104 | Sending flit 8 to channel at output 0.
40 | network_0/network_0_fchan_egress832 | Beginning channel traversal for flit 8 with delay 1.
40 | network_0/network_0_fchan_egress832 | Completed channel traversal for flit 8.
41 | node832 | Ejecting flit 8 (packet 8) from VC 1.
41 | node832 | Injecting credit for VC 1 into subnet 0.
41 | node832 | Retiring flit 8 (packet 8, src = 13, dest = 832, hops = 7, flat = 41).
41 | node832 | Retiring packet 8 (plat = 41, nlat = 41, frag = 0, src = 13, dest = 832).
Class 0:
Packet latency average = 100.595
	minimum = 6
	maximum = 381
Network latency average = 100.595
	minimum = 6
	maximum = 381
Slowest packet = 1724257
Flit latency average = 100.595
	minimum = 6
	maximum = 381
Slowest flit = 1724257
Fragmentation average = 0
	minimum = 0
	maximum = 0
Injected packet rate average = 0.699729
	minimum = 0.643 (at node 2151)
	maximum = 0.749 (at node 2316)
Accepted packet rate average = 0.597585
	minimum = 0.546 (at node 2499)
	maximum = 0.739 (at node 1820)
Injected flit rate average = 0.699729
	minimum = 0.643 (at node 2151)
	maximum = 0.749 (at node 2316)
Accepted flit rate average= 0.597585
	minimum = 0.546 (at node 2499)
	maximum = 0.739 (at node 1820)
Injected packet length average = 1
Accepted packet length average = 1
Total in-flight flits = 418403 (0 measured)
latency change    = 1
throughput change = 1
Class 0:
Packet latency average = 141.674
	minimum = 6
	maximum = 559
Network latency average = 141.036
	minimum = 6
	maximum = 524
Slowest packet = 3878004
Flit latency average = 141.036
	minimum = 6
	maximum = 524
Slowest flit = 4041993
Fragmentation average = 0
	minimum = 0
	maximum = 0
Injected packet rate average = 0.696965
	minimum = 0.655 (at node 111)
	maximum = 0.7355 (at node 3507)
Accepted packet rate average = 0.625523
	minimum = 0.5745 (at node 3009)
	maximum = 0.7155 (at node 3445)
Injected flit rate average = 0.696965
	minimum = 0.655 (at node 111)
	maximum = 0.7355 (at node 3507)
Accepted flit rate average= 0.625523
	minimum = 0.5745 (at node 3009)
	maximum = 0.7155 (at node 3445)
Injected packet length average = 1
Accepted packet length average = 1
Total in-flight flits = 585684 (0 measured)
latency change    = 0.289951
throughput change = 0.0446636
Class 0:
Packet latency average = 239.043
	minimum = 6
	maximum = 648
Network latency average = 225.59
	minimum = 6
	maximum = 592
Slowest packet = 4791598
Flit latency average = 225.59
	minimum = 6
	maximum = 592
Slowest flit = 6661864
Fragmentation average = 0
	minimum = 0
	maximum = 0
Injected packet rate average = 0.681967
	minimum = 0.594 (at node 3476)
	maximum = 0.752 (at node 194)
Accepted packet rate average = 0.661543
	minimum = 0.561 (at node 1334)
	maximum = 0.737 (at node 2080)
Injected flit rate average = 0.681967
	minimum = 0.594 (at node 3476)
	maximum = 0.752 (at node 194)
Accepted flit rate average= 0.661543
	minimum = 0.561 (at node 1334)
	maximum = 0.737 (at node 2080)
Injected packet length average = 1
Accepted packet length average = 1
Total in-flight flits = 669819 (0 measured)
latency change    = 0.407328
throughput change = 0.054448
Warmed up ...Time used is 3000 cycles
Class 0:
Packet latency average = 286.677
	minimum = 6
	maximum = 731
Network latency average = 242.308
	minimum = 6
	maximum = 651
Slowest packet = 8506065
Flit latency average = 249.053
	minimum = 6
	maximum = 651
Slowest flit = 8593338
Fragmentation average = 0
	minimum = 0
	maximum = 0
Injected packet rate average = 0.67517
	minimum = 0.583 (at node 467)
	maximum = 0.747 (at node 2402)
Accepted packet rate average = 0.66534
	minimum = 0.59 (at node 4057)
	maximum = 0.739 (at node 3643)
Injected flit rate average = 0.67517
	minimum = 0.583 (at node 467)
	maximum = 0.747 (at node 2402)
Accepted flit rate average= 0.66534
	minimum = 0.59 (at node 4057)
	maximum = 0.739 (at node 3643)
Injected packet length average = 1
Accepted packet length average = 1
Total in-flight flits = 710318 (710318 measured)
latency change    = 0.166161
throughput change = 0.0057074
Class 0:
Packet latency average = 316.19
	minimum = 6
	maximum = 824
Network latency average = 253.502
	minimum = 6
	maximum = 686
Slowest packet = 8506065
Flit latency average = 255.496
	minimum = 6
	maximum = 686
Slowest flit = 10219991
Fragmentation average = 0
	minimum = 0
	maximum = 0
Injected packet rate average = 0.674468
	minimum = 0.62 (at node 467)
	maximum = 0.728 (at node 717)
Accepted packet rate average = 0.666101
	minimum = 0.614 (at node 2068)
	maximum = 0.7265 (at node 843)
Injected flit rate average = 0.674468
	minimum = 0.62 (at node 467)
	maximum = 0.728 (at node 717)
Accepted flit rate average= 0.666101
	minimum = 0.614 (at node 2068)
	maximum = 0.7265 (at node 843)
Injected packet length average = 1
Accepted packet length average = 1
Total in-flight flits = 738616 (738616 measured)
latency change    = 0.0933378
throughput change = 0.00114172
Class 0:
Packet latency average = 341.194
	minimum = 6
	maximum = 974
Network latency average = 259.939
	minimum = 6
	maximum = 746
Slowest packet = 8506065
Flit latency average = 260.741
	minimum = 6
	maximum = 746
Slowest flit = 14557612
Fragmentation average = 0
	minimum = 0
	maximum = 0
Injected packet rate average = 0.673771
	minimum = 0.632 (at node 467)
	maximum = 0.724667 (at node 3248)
Accepted packet rate average = 0.666732
	minimum = 0.626667 (at node 3724)
	maximum = 0.720667 (at node 3122)
Injected flit rate average = 0.673771
	minimum = 0.632 (at node 467)
	maximum = 0.724667 (at node 3248)
Accepted flit rate average= 0.666732
	minimum = 0.626667 (at node 3724)
	maximum = 0.720667 (at node 3122)
Injected packet length average = 1
Accepted packet length average = 1
Total in-flight flits = 756601 (756601 measured)
latency change    = 0.0732839
throughput change = 0.000946563
Class 0:
Packet latency average = 365.031
	minimum = 6
	maximum = 1016
Network latency average = 264.201
	minimum = 6
	maximum = 815
Slowest packet = 8506065
Flit latency average = 264.542
	minimum = 6
	maximum = 815
Slowest flit = 15697197
Fragmentation average = 0
	minimum = 0
	maximum = 0
Injected packet rate average = 0.67125
	minimum = 0.61725 (at node 3648)
	maximum = 0.719 (at node 588)
Accepted packet rate average = 0.666797
	minimum = 0.6185 (at node 57)
	maximum = 0.718 (at node 2213)
Injected flit rate average = 0.67125
	minimum = 0.61725 (at node 3648)
	maximum = 0.719 (at node 588)
Accepted flit rate average= 0.666797
	minimum = 0.6185 (at node 57)
	maximum = 0.718 (at node 2213)
Injected packet length average = 1
Accepted packet length average = 1
Total in-flight flits = 743067 (743067 measured)
latency change    = 0.0653025
throughput change = 9.78508e-05
Class 0:
Packet latency average = 388.73
	minimum = 6
	maximum = 1142
Network latency average = 265.902
	minimum = 6
	maximum = 815
Slowest packet = 8506065
Flit latency average = 266.091
	minimum = 6
	maximum = 815
Slowest flit = 15697197
Fragmentation average = 0
	minimum = 0
	maximum = 0
Injected packet rate average = 0.670881
	minimum = 0.6264 (at node 3221)
	maximum = 0.7196 (at node 588)
Accepted packet rate average = 0.66679
	minimum = 0.625 (at node 1330)
	maximum = 0.7164 (at node 1297)
Injected flit rate average = 0.670881
	minimum = 0.6264 (at node 3221)
	maximum = 0.7196 (at node 588)
Accepted flit rate average= 0.66679
	minimum = 0.625 (at node 1330)
	maximum = 0.7164 (at node 1297)
Injected packet length average = 1
Accepted packet length average = 1
Total in-flight flits = 753902 (753902 measured)
latency change    = 0.0609642
throughput change = 1.10026e-05
Class 0:
Packet latency average = 412.427
	minimum = 6
	maximum = 1304
Network latency average = 267.551
	minimum = 6
	maximum = 815
Slowest packet = 8506065
Flit latency average = 267.641
	minimum = 6
	maximum = 815
Slowest flit = 15697197
Fragmentation average = 0
	minimum = 0
	maximum = 0
Injected packet rate average = 0.669822
	minimum = 0.6305 (at node 930)
	maximum = 0.716333 (at node 588)
Accepted packet rate average = 0.666726
	minimum = 0.627167 (at node 1330)
	maximum = 0.715833 (at node 3643)
Injected flit rate average = 0.669822
	minimum = 0.6305 (at node 930)
	maximum = 0.716333 (at node 588)
Accepted flit rate average= 0.666726
	minimum = 0.627167 (at node 1330)
	maximum = 0.715833 (at node 3643)
Injected packet length average = 1
Accepted packet length average = 1
Total in-flight flits = 746222 (746222 measured)
latency change    = 0.057459
throughput change = 9.49134e-05
Class 0:
Packet latency average = 436.157
	minimum = 6
	maximum = 1366
Network latency average = 268.116
	minimum = 6
	maximum = 890
Slowest packet = 8506065
Flit latency average = 268.173
	minimum = 6
	maximum = 890
Slowest flit = 23127628
Fragmentation average = 0
	minimum = 0
	maximum = 0
Injected packet rate average = 0.667496
	minimum = 0.622 (at node 1744)
	maximum = 0.715286 (at node 972)
Accepted packet rate average = 0.66634
	minimum = 0.627286 (at node 1051)
	maximum = 0.714714 (at node 3643)
Injected flit rate average = 0.667496
	minimum = 0.622 (at node 1744)
	maximum = 0.715286 (at node 972)
Accepted flit rate average= 0.66634
	minimum = 0.627286 (at node 1051)
	maximum = 0.714714 (at node 3643)
Injected packet length average = 1
Accepted packet length average = 1
Total in-flight flits = 703373 (703373 measured)
latency change    = 0.0544068
throughput change = 0.000579315
Draining all recorded packets ...
Class 0:
Remaining flits: 28387439 28418416 28433944 28449821 28460977 28464159 28490088 28518465 28530677 28545816 [...] (649924 flits)
Measured flits: 28387439 28418416 28449821 28460977 28464159 28490088 28518465 28530677 28545816 28548443 [...] (5776 flits)
Draining remaining packets ...
Time taken is 11824 cycles
====== Overall Traffic Statistics ======
====== Traffic class 0 ======
Packet latency average = 459.473 (1 samples)
	minimum = 6 (1 samples)
	maximum = 1641 (1 samples)
Network latency average = 269.222 (1 samples)
	minimum = 6 (1 samples)
	maximum = 973 (1 samples)
Flit latency average = 265.082 (1 samples)
	minimum = 6 (1 samples)
	maximum = 973 (1 samples)
Fragmentation average = 0 (1 samples)
	minimum = 0 (1 samples)
	maximum = 0 (1 samples)
Injected packet rate average = 0.667496 (1 samples)
	minimum = 0.622 (1 samples)
	maximum = 0.715286 (1 samples)
Accepted packet rate average = 0.66634 (1 samples)
	minimum = 0.627286 (1 samples)
	maximum = 0.714714 (1 samples)
Injected flit rate average = 0.667496 (1 samples)
	minimum = 0.622 (1 samples)
	maximum = 0.715286 (1 samples)
Accepted flit rate average = 0.66634 (1 samples)
	minimum = 0.627286 (1 samples)
	maximum = 0.714714 (1 samples)
Injected packet size average = 1 (1 samples)
Accepted packet size average = 1 (1 samples)
Hops average = 6.68912 (1 samples)
Total run time 3245.27
