BEGIN Configuration File: examples/fattree_config_0.30_2_transpose
// $Id: dragonflyconfig 3555 2011-05-16 23:37:55Z dub $

// Copyright (c) 2007-2015, Trustees of The Leland Stanford Junior University
// All rights reserved.
//
// Redistribution and use in source and binary forms, with or without
// modification, are permitted provided that the following conditions are met:
//
// Redistributions of source code must retain the above copyright notice, this
// list of conditions and the following disclaimer.
// Redistributions in binary form must reproduce the above copyright notice,
// this list of conditions and the following disclaimer in the documentation
// and/or other materials provided with the distribution.
//
// THIS SOFTWARE IS PROVIDED BY THE COPYRIGHT HOLDERS AND CONTRIBUTORS "AS IS"
// AND ANY EXPRESS OR IMPLIED WARRANTIES, INCLUDING, BUT NOT LIMITED TO, THE
// IMPLIED WARRANTIES OF MERCHANTABILITY AND FITNESS FOR A PARTICULAR PURPOSE
// ARE DISCLAIMED. IN NO EVENT SHALL THE COPYRIGHT OWNER OR CONTRIBUTORS BE
// LIABLE FOR ANY DIRECT, INDIRECT, INCIDENTAL, SPECIAL, EXEMPLARY, OR
// CONSEQUENTIAL DAMAGES (INCLUDING, BUT NOT LIMITED TO, PROCUREMENT OF
// SUBSTITUTE GOODS OR SERVICES; LOSS OF USE, DATA, OR PROFITS; OR BUSINESS
// INTERRUPTION) HOWEVER CAUSED AND ON ANY THEORY OF LIABILITY, WHETHER IN
// CONTRACT, STRICT LIABILITY, OR TORT (INCLUDING NEGLIGENCE OR OTHERWISE)
// ARISING IN ANY WAY OUT OF THE USE OF THIS SOFTWARE, EVEN IF ADVISED OF THE
// POSSIBILITY OF SUCH DAMAGE.


hold_switch_for_packet=1;

vc_buf_size = 16;


wait_for_tail_credit = 0;

//
// Router architecture
//
vc_allocator = separable_input_first; 
sw_allocator = separable_input_first;
alloc_iters  = 1;

credit_delay   = 2;
routing_delay  = 0;
vc_alloc_delay = 1;
sw_alloc_delay = 1;
st_final_delay = 1;

input_speedup     = 1;
output_speedup    = 1;
internal_speedup  = 1.0;


warmup_periods = 3;
sim_count          = 1;

sample_period  = 1000;  

routing_function = nca;
num_vcs     = 4;

priority = none;
traffic = transpose;


injection_rate = 0.30;
packet_size = 1;
injection_rate_uses_flits=1;

topology = fattree;

k  = 8;
n  = 4;
t = 2;

watch_file = watchfile.txt;
watch_out=-;
stats_out = examples/fattree_config_0.30_2_transpose.m;

END Configuration File: examples/fattree_config_0.30_2_transpose
Fat Tree
 k = 8 levels = 4
 each switch - total radix =  16
 # of switches = 2048
 # of channels = 24576
 # of nodes ( size of network ) = 4096
 tapering factor = 2
0 | node13 | Enqueuing flit 1 (packet 1) at time 0.
0 | node14 | Enqueuing flit 2 (packet 2) at time 0.
0 | node15 | Enqueuing flit 3 (packet 3) at time 0.
0 | node18 | Enqueuing flit 4 (packet 4) at time 0.
0 | node20 | Enqueuing flit 5 (packet 5) at time 0.
0 | node31 | Enqueuing flit 6 (packet 6) at time 0.
0 | node34 | Enqueuing flit 7 (packet 7) at time 0.
0 | node40 | Enqueuing flit 8 (packet 8) at time 0.
0 | node47 | Enqueuing flit 9 (packet 9) at time 0.
0 | node53 | Enqueuing flit 10 (packet 10) at time 0.
0 | traffic_manager | Finding output VC for flit 1:
0 | traffic_manager |   Selected output VC 0.
0 | node13 | Generating lookahead routing info for flit 1.
0 | node13 | Injecting flit 1 into subnet 0 at time 0 with priority 0.
0 | traffic_manager | Finding output VC for flit 2:
0 | traffic_manager |   Selected output VC 0.
0 | node14 | Generating lookahead routing info for flit 2.
0 | node14 | Injecting flit 2 into subnet 0 at time 0 with priority 0.
0 | traffic_manager | Finding output VC for flit 3:
0 | traffic_manager |   Selected output VC 0.
0 | node15 | Generating lookahead routing info for flit 3.
0 | node15 | Injecting flit 3 into subnet 0 at time 0 with priority 0.
0 | traffic_manager | Finding output VC for flit 4:
0 | traffic_manager |   Selected output VC 0.
0 | node18 | Generating lookahead routing info for flit 4.
0 | node18 | Injecting flit 4 into subnet 0 at time 0 with priority 0.
0 | traffic_manager | Finding output VC for flit 5:
0 | traffic_manager |   Selected output VC 0.
0 | node20 | Generating lookahead routing info for flit 5.
0 | node20 | Injecting flit 5 into subnet 0 at time 0 with priority 0.
0 | traffic_manager | Finding output VC for flit 6:
0 | traffic_manager |   Selected output VC 0.
0 | node31 | Generating lookahead routing info for flit 6.
0 | node31 | Injecting flit 6 into subnet 0 at time 0 with priority 0.
0 | traffic_manager | Finding output VC for flit 7:
0 | traffic_manager |   Selected output VC 0.
0 | node34 | Generating lookahead routing info for flit 7.
0 | node34 | Injecting flit 7 into subnet 0 at time 0 with priority 0.
0 | traffic_manager | Finding output VC for flit 8:
0 | traffic_manager |   Selected output VC 0.
0 | node40 | Generating lookahead routing info for flit 8.
0 | node40 | Injecting flit 8 into subnet 0 at time 0 with priority 0.
0 | traffic_manager | Finding output VC for flit 9:
0 | traffic_manager |   Selected output VC 0.
0 | node47 | Generating lookahead routing info for flit 9.
0 | node47 | Injecting flit 9 into subnet 0 at time 0 with priority 0.
0 | traffic_manager | Finding output VC for flit 10:
0 | traffic_manager |   Selected output VC 0.
0 | node53 | Generating lookahead routing info for flit 10.
0 | node53 | Injecting flit 10 into subnet 0 at time 0 with priority 0.
1 | network_0/network_0_fchan_ingress13 | Beginning channel traversal for flit 1 with delay 1.
1 | network_0/network_0_fchan_ingress14 | Beginning channel traversal for flit 2 with delay 1.
1 | network_0/network_0_fchan_ingress15 | Beginning channel traversal for flit 3 with delay 1.
1 | network_0/network_0_fchan_ingress18 | Beginning channel traversal for flit 4 with delay 1.
1 | network_0/network_0_fchan_ingress20 | Beginning channel traversal for flit 5 with delay 1.
1 | network_0/network_0_fchan_ingress31 | Beginning channel traversal for flit 6 with delay 1.
1 | network_0/network_0_fchan_ingress34 | Beginning channel traversal for flit 7 with delay 1.
1 | network_0/network_0_fchan_ingress40 | Beginning channel traversal for flit 8 with delay 1.
1 | network_0/network_0_fchan_ingress47 | Beginning channel traversal for flit 9 with delay 1.
1 | network_0/network_0_fchan_ingress53 | Beginning channel traversal for flit 10 with delay 1.
1 | network_0/network_0_fchan_ingress13 | Completed channel traversal for flit 1.
1 | network_0/network_0_fchan_ingress14 | Completed channel traversal for flit 2.
1 | network_0/network_0_fchan_ingress15 | Completed channel traversal for flit 3.
1 | network_0/network_0_fchan_ingress18 | Completed channel traversal for flit 4.
1 | network_0/network_0_fchan_ingress20 | Completed channel traversal for flit 5.
1 | network_0/network_0_fchan_ingress31 | Completed channel traversal for flit 6.
1 | network_0/network_0_fchan_ingress34 | Completed channel traversal for flit 7.
1 | network_0/network_0_fchan_ingress40 | Completed channel traversal for flit 8.
1 | network_0/network_0_fchan_ingress47 | Completed channel traversal for flit 9.
1 | network_0/network_0_fchan_ingress53 | Completed channel traversal for flit 10.
2 | network_0/router_level3_1 | Received flit 1 from channel at input 5.
2 | network_0/router_level3_1 | Received flit 2 from channel at input 6.
2 | network_0/router_level3_1 | Received flit 3 from channel at input 7.
2 | network_0/router_level3_2 | Received flit 4 from channel at input 2.
2 | network_0/router_level3_2 | Received flit 5 from channel at input 4.
2 | network_0/router_level3_3 | Received flit 6 from channel at input 7.
2 | network_0/router_level3_4 | Received flit 7 from channel at input 2.
2 | network_0/router_level3_5 | Received flit 8 from channel at input 0.
2 | network_0/router_level3_5 | Received flit 9 from channel at input 7.
2 | network_0/router_level3_6 | Received flit 10 from channel at input 5.
2 | network_0/router_level3_1 | Adding flit 1 to VC 0 at input 5 (state: idle, empty).
2 | network_0/router_level3_1 | Using precomputed lookahead routing information for VC 0 at input 5 (front: 1).
2 | network_0/router_level3_1/buf_5/vc_0 | Changing state from idle to vc_alloc.
2 | network_0/router_level3_1 | Adding flit 2 to VC 0 at input 6 (state: idle, empty).
2 | network_0/router_level3_1 | Using precomputed lookahead routing information for VC 0 at input 6 (front: 2).
2 | network_0/router_level3_1/buf_6/vc_0 | Changing state from idle to vc_alloc.
2 | network_0/router_level3_1 | Adding flit 3 to VC 0 at input 7 (state: idle, empty).
2 | network_0/router_level3_1 | Using precomputed lookahead routing information for VC 0 at input 7 (front: 3).
2 | network_0/router_level3_1/buf_7/vc_0 | Changing state from idle to vc_alloc.
2 | network_0/router_level3_1 | Beginning VC allocation for VC 0 at input 5 (front: 1).
2 | network_0/router_level3_1 |   Requesting VC 0 at output 9 (in_pri: 0, out_pri: 0).
2 | network_0/router_level3_1 |   Requesting VC 1 at output 9 (in_pri: 0, out_pri: 0).
2 | network_0/router_level3_1 |   Requesting VC 2 at output 9 (in_pri: 0, out_pri: 0).
2 | network_0/router_level3_1 |   Requesting VC 3 at output 9 (in_pri: 0, out_pri: 0).
2 | network_0/router_level3_1 | Beginning VC allocation for VC 0 at input 6 (front: 2).
2 | network_0/router_level3_1 |   Requesting VC 0 at output 14 (in_pri: 0, out_pri: 0).
2 | network_0/router_level3_1 |   Requesting VC 1 at output 14 (in_pri: 0, out_pri: 0).
2 | network_0/router_level3_1 |   Requesting VC 2 at output 14 (in_pri: 0, out_pri: 0).
2 | network_0/router_level3_1 |   Requesting VC 3 at output 14 (in_pri: 0, out_pri: 0).
2 | network_0/router_level3_1 | Beginning VC allocation for VC 0 at input 7 (front: 3).
2 | network_0/router_level3_1 |   Requesting VC 0 at output 13 (in_pri: 0, out_pri: 0).
2 | network_0/router_level3_1 |   Requesting VC 1 at output 13 (in_pri: 0, out_pri: 0).
2 | network_0/router_level3_1 |   Requesting VC 2 at output 13 (in_pri: 0, out_pri: 0).
2 | network_0/router_level3_1 |   Requesting VC 3 at output 13 (in_pri: 0, out_pri: 0).
2 | network_0/router_level3_1/vc_allocator | Input requests = [ 12 -> [ 44@0 45@0 46@0 47@0 ]  20 -> [ 36@0 37@0 38@0 39@0 ]  24 -> [ 56@0 57@0 58@0 59@0 ]  28 -> [ 52@0 53@0 54@0 55@0 ]  ], output requests = [ 36 -> [ 20@0 ]  37 -> [ 20@0 ]  38 -> [ 20@0 ]  39 -> [ 20@0 ]  44 -> [ 12@0 ]  45 -> [ 12@0 ]  46 -> [ 12@0 ]  47 -> [ 12@0 ]  52 -> [ 28@0 ]  53 -> [ 28@0 ]  54 -> [ 28@0 ]  55 -> [ 28@0 ]  56 -> [ 24@0 ]  57 -> [ 24@0 ]  58 -> [ 24@0 ]  59 -> [ 24@0 ]  ].
2 | network_0/router_level3_1/vc_allocator | Input grants = [ 12 -> 44  20 -> 36  24 -> 56  28 -> 52  ], output grants = [ 36 -> 20  44 -> 12  52 -> 28  56 -> 24  ].
2 | network_0/router_level3_1 | Assigning VC 0 at output 9 to VC 0 at input 5.
2 | network_0/router_level3_1 | Assigning VC 0 at output 14 to VC 0 at input 6.
2 | network_0/router_level3_1 | Assigning VC 0 at output 13 to VC 0 at input 7.
2 | network_0/router_level3_1 | Completed VC allocation for VC 0 at input 5 (front: 1).
2 | network_0/router_level3_1 |   Acquiring assigned VC 0 at output 9.
2 | network_0/router_level3_1/buf_5/vc_0 | Changing state from vc_alloc to active.
2 | network_0/router_level3_1 | Completed VC allocation for VC 0 at input 6 (front: 2).
2 | network_0/router_level3_1 |   Acquiring assigned VC 0 at output 14.
2 | network_0/router_level3_1/buf_6/vc_0 | Changing state from vc_alloc to active.
2 | network_0/router_level3_1 | Completed VC allocation for VC 0 at input 7 (front: 3).
2 | network_0/router_level3_1 |   Acquiring assigned VC 0 at output 13.
2 | network_0/router_level3_1/buf_7/vc_0 | Changing state from vc_alloc to active.
2 | network_0/router_level3_2 | Adding flit 4 to VC 0 at input 2 (state: idle, empty).
2 | network_0/router_level3_2 | Using precomputed lookahead routing information for VC 0 at input 2 (front: 4).
2 | network_0/router_level3_2/buf_2/vc_0 | Changing state from idle to vc_alloc.
2 | network_0/router_level3_2 | Adding flit 5 to VC 0 at input 4 (state: idle, empty).
2 | network_0/router_level3_2 | Using precomputed lookahead routing information for VC 0 at input 4 (front: 5).
2 | network_0/router_level3_2/buf_4/vc_0 | Changing state from idle to vc_alloc.
2 | network_0/router_level3_2 | Beginning VC allocation for VC 0 at input 2 (front: 4).
2 | network_0/router_level3_2 |   Requesting VC 0 at output 8 (in_pri: 0, out_pri: 0).
2 | network_0/router_level3_2 |   Requesting VC 1 at output 8 (in_pri: 0, out_pri: 0).
2 | network_0/router_level3_2 |   Requesting VC 2 at output 8 (in_pri: 0, out_pri: 0).
2 | network_0/router_level3_2 |   Requesting VC 3 at output 8 (in_pri: 0, out_pri: 0).
2 | network_0/router_level3_2 | Beginning VC allocation for VC 0 at input 4 (front: 5).
2 | network_0/router_level3_2 |   Requesting VC 0 at output 8 (in_pri: 0, out_pri: 0).
2 | network_0/router_level3_2 |   Requesting VC 1 at output 8 (in_pri: 0, out_pri: 0).
2 | network_0/router_level3_2 |   Requesting VC 2 at output 8 (in_pri: 0, out_pri: 0).
2 | network_0/router_level3_2 |   Requesting VC 3 at output 8 (in_pri: 0, out_pri: 0).
2 | network_0/router_level3_2/vc_allocator | Input requests = [ 8 -> [ 32@0 33@0 34@0 35@0 ]  16 -> [ 32@0 33@0 34@0 35@0 ]  ], output requests = [ 32 -> [ 8@0 16@0 ]  33 -> [ 8@0 16@0 ]  34 -> [ 8@0 16@0 ]  35 -> [ 8@0 16@0 ]  ].
2 | network_0/router_level3_2/vc_allocator | Input grants = [ 8 -> 32  ], output grants = [ 32 -> 8  ].
2 | network_0/router_level3_2 | Assigning VC 0 at output 8 to VC 0 at input 2.
2 | network_0/router_level3_2 | VC allocation failed for VC 0 at input 4.
2 | network_0/router_level3_2 | Completed VC allocation for VC 0 at input 2 (front: 4).
2 | network_0/router_level3_2 |   Acquiring assigned VC 0 at output 8.
2 | network_0/router_level3_2/buf_2/vc_0 | Changing state from vc_alloc to active.
2 | network_0/router_level3_2 | Completed VC allocation for VC 0 at input 4 (front: 5).
2 | network_0/router_level3_2 |   No output VC allocated.
2 | network_0/router_level3_3 | Adding flit 6 to VC 0 at input 7 (state: idle, empty).
2 | network_0/router_level3_3 | Using precomputed lookahead routing information for VC 0 at input 7 (front: 6).
2 | network_0/router_level3_3/buf_7/vc_0 | Changing state from idle to vc_alloc.
2 | network_0/router_level3_3 | Beginning VC allocation for VC 0 at input 7 (front: 6).
2 | network_0/router_level3_3 |   Requesting VC 0 at output 15 (in_pri: 0, out_pri: 0).
2 | network_0/router_level3_3 |   Requesting VC 1 at output 15 (in_pri: 0, out_pri: 0).
2 | network_0/router_level3_3 |   Requesting VC 2 at output 15 (in_pri: 0, out_pri: 0).
2 | network_0/router_level3_3 |   Requesting VC 3 at output 15 (in_pri: 0, out_pri: 0).
2 | network_0/router_level3_3/vc_allocator | Input requests = [ 28 -> [ 60@0 61@0 62@0 63@0 ]  ], output requests = [ 60 -> [ 28@0 ]  61 -> [ 28@0 ]  62 -> [ 28@0 ]  63 -> [ 28@0 ]  ].
2 | network_0/router_level3_3/vc_allocator | Input grants = [ 28 -> 60  ], output grants = [ 60 -> 28  ].
2 | network_0/router_level3_3 | Assigning VC 0 at output 15 to VC 0 at input 7.
2 | network_0/router_level3_3 | Completed VC allocation for VC 0 at input 7 (front: 6).
2 | network_0/router_level3_3 |   Acquiring assigned VC 0 at output 15.
2 | network_0/router_level3_3/buf_7/vc_0 | Changing state from vc_alloc to active.
2 | network_0/router_level3_4 | Adding flit 7 to VC 0 at input 2 (state: idle, empty).
2 | network_0/router_level3_4 | Using precomputed lookahead routing information for VC 0 at input 2 (front: 7).
2 | network_0/router_level3_4/buf_2/vc_0 | Changing state from idle to vc_alloc.
2 | network_0/router_level3_4 | Beginning VC allocation for VC 0 at input 2 (front: 7).
2 | network_0/router_level3_4 |   Requesting VC 0 at output 9 (in_pri: 0, out_pri: 0).
2 | network_0/router_level3_4 |   Requesting VC 1 at output 9 (in_pri: 0, out_pri: 0).
2 | network_0/router_level3_4 |   Requesting VC 2 at output 9 (in_pri: 0, out_pri: 0).
2 | network_0/router_level3_4 |   Requesting VC 3 at output 9 (in_pri: 0, out_pri: 0).
2 | network_0/router_level3_4/vc_allocator | Input requests = [ 8 -> [ 36@0 37@0 38@0 39@0 ]  ], output requests = [ 36 -> [ 8@0 ]  37 -> [ 8@0 ]  38 -> [ 8@0 ]  39 -> [ 8@0 ]  ].
2 | network_0/router_level3_4/vc_allocator | Input grants = [ 8 -> 36  ], output grants = [ 36 -> 8  ].
2 | network_0/router_level3_4 | Assigning VC 0 at output 9 to VC 0 at input 2.
2 | network_0/router_level3_4 | Completed VC allocation for VC 0 at input 2 (front: 7).
2 | network_0/router_level3_4 |   Acquiring assigned VC 0 at output 9.
2 | network_0/router_level3_4/buf_2/vc_0 | Changing state from vc_alloc to active.
2 | network_0/router_level3_5 | Adding flit 8 to VC 0 at input 0 (state: idle, empty).
2 | network_0/router_level3_5 | Using precomputed lookahead routing information for VC 0 at input 0 (front: 8).
2 | network_0/router_level3_5/buf_0/vc_0 | Changing state from idle to vc_alloc.
2 | network_0/router_level3_5 | Adding flit 9 to VC 0 at input 7 (state: idle, empty).
2 | network_0/router_level3_5 | Using precomputed lookahead routing information for VC 0 at input 7 (front: 9).
2 | network_0/router_level3_5/buf_7/vc_0 | Changing state from idle to vc_alloc.
2 | network_0/router_level3_5 | Beginning VC allocation for VC 0 at input 0 (front: 8).
2 | network_0/router_level3_5 |   Requesting VC 0 at output 15 (in_pri: 0, out_pri: 0).
2 | network_0/router_level3_5 |   Requesting VC 1 at output 15 (in_pri: 0, out_pri: 0).
2 | network_0/router_level3_5 |   Requesting VC 2 at output 15 (in_pri: 0, out_pri: 0).
2 | network_0/router_level3_5 |   Requesting VC 3 at output 15 (in_pri: 0, out_pri: 0).
2 | network_0/router_level3_5 | Beginning VC allocation for VC 0 at input 7 (front: 9).
2 | network_0/router_level3_5 |   Requesting VC 0 at output 12 (in_pri: 0, out_pri: 0).
2 | network_0/router_level3_5 |   Requesting VC 1 at output 12 (in_pri: 0, out_pri: 0).
2 | network_0/router_level3_5 |   Requesting VC 2 at output 12 (in_pri: 0, out_pri: 0).
2 | network_0/router_level3_5 |   Requesting VC 3 at output 12 (in_pri: 0, out_pri: 0).
2 | network_0/router_level3_5/vc_allocator | Input requests = [ 0 -> [ 60@0 61@0 62@0 63@0 ]  28 -> [ 48@0 49@0 50@0 51@0 ]  ], output requests = [ 48 -> [ 28@0 ]  49 -> [ 28@0 ]  50 -> [ 28@0 ]  51 -> [ 28@0 ]  60 -> [ 0@0 ]  61 -> [ 0@0 ]  62 -> [ 0@0 ]  63 -> [ 0@0 ]  ].
2 | network_0/router_level3_5/vc_allocator | Input grants = [ 0 -> 60  28 -> 48  ], output grants = [ 48 -> 28  60 -> 0  ].
2 | network_0/router_level3_5 | Assigning VC 0 at output 15 to VC 0 at input 0.
2 | network_0/router_level3_5 | Assigning VC 0 at output 12 to VC 0 at input 7.
2 | network_0/router_level3_5 | Completed VC allocation for VC 0 at input 0 (front: 8).
2 | network_0/router_level3_5 |   Acquiring assigned VC 0 at output 15.
2 | network_0/router_level3_5/buf_0/vc_0 | Changing state from vc_alloc to active.
2 | network_0/router_level3_5 | Completed VC allocation for VC 0 at input 7 (front: 9).
2 | network_0/router_level3_5 |   Acquiring assigned VC 0 at output 12.
2 | network_0/router_level3_5/buf_7/vc_0 | Changing state from vc_alloc to active.
2 | network_0/router_level3_6 | Adding flit 10 to VC 0 at input 5 (state: idle, empty).
2 | network_0/router_level3_6 | Using precomputed lookahead routing information for VC 0 at input 5 (front: 10).
2 | network_0/router_level3_6/buf_5/vc_0 | Changing state from idle to vc_alloc.
2 | network_0/router_level3_6 | Beginning VC allocation for VC 0 at input 5 (front: 10).
2 | network_0/router_level3_6 |   Requesting VC 0 at output 14 (in_pri: 0, out_pri: 0).
2 | network_0/router_level3_6 |   Requesting VC 1 at output 14 (in_pri: 0, out_pri: 0).
2 | network_0/router_level3_6 |   Requesting VC 2 at output 14 (in_pri: 0, out_pri: 0).
2 | network_0/router_level3_6 |   Requesting VC 3 at output 14 (in_pri: 0, out_pri: 0).
2 | network_0/router_level3_6/vc_allocator | Input requests = [ 20 -> [ 56@0 57@0 58@0 59@0 ]  24 -> [ 40@0 41@0 42@0 43@0 ]  28 -> [ 56@0 57@0 58@0 59@0 ]  ], output requests = [ 40 -> [ 24@0 ]  41 -> [ 24@0 ]  42 -> [ 24@0 ]  43 -> [ 24@0 ]  56 -> [ 20@0 28@0 ]  57 -> [ 20@0 28@0 ]  58 -> [ 20@0 28@0 ]  59 -> [ 20@0 28@0 ]  ].
2 | network_0/router_level3_6/vc_allocator | Input grants = [ 20 -> 56  24 -> 40  ], output grants = [ 40 -> 24  56 -> 20  ].
2 | network_0/router_level3_6 | Assigning VC 0 at output 14 to VC 0 at input 5.
2 | network_0/router_level3_6 | Completed VC allocation for VC 0 at input 5 (front: 10).
2 | network_0/router_level3_6 |   Acquiring assigned VC 0 at output 14.
2 | network_0/router_level3_6/buf_5/vc_0 | Changing state from vc_alloc to active.
3 | network_0/router_level3_1 | Beginning switch allocation for VC 0 at input 5 (front: 1).
3 | network_0/router_level3_1 |   Requesting output 9.0 (non-spec, pri: 0).
3 | network_0/router_level3_1 | Beginning switch allocation for VC 0 at input 6 (front: 2).
3 | network_0/router_level3_1 |   Requesting output 14.0 (non-spec, pri: 0).
3 | network_0/router_level3_1 | Beginning switch allocation for VC 0 at input 7 (front: 3).
3 | network_0/router_level3_1 |   Requesting output 13.0 (non-spec, pri: 0).
3 | network_0/router_level3_1/sw_allocator | Input requests = [ 3 -> [ 11@0 ]  5 -> [ 9@0 ]  6 -> [ 14@0 ]  7 -> [ 13@0 ]  ], output requests = [ 9 -> [ 5@0 ]  11 -> [ 3@0 ]  13 -> [ 7@0 ]  14 -> [ 6@0 ]  ].
3 | network_0/router_level3_1/sw_allocator | Input grants = [ 3 -> 11  5 -> 9  6 -> 14  7 -> 13  ], output grants = [ 9 -> 5  11 -> 3  13 -> 7  14 -> 6  ].
3 | network_0/router_level3_1 | Assigning output 9.0 to VC 0 at input 5.0.
3 | network_0/router_level3_1 | Assigning output 14.0 to VC 0 at input 6.0.
3 | network_0/router_level3_1 | Assigning output 13.0 to VC 0 at input 7.0.
3 | network_0/router_level3_1 | Completed switch allocation for VC 0 at input 5 (front: 1).
3 | network_0/router_level3_1 |   Scheduling switch connection from input 5.0 to output 9.0.
3 | network_0/router_level3_1 | Updating lookahead routing information for flit 1.
3 | network_0/router_level3_1 | Completed switch allocation for VC 0 at input 6 (front: 2).
3 | network_0/router_level3_1 |   Scheduling switch connection from input 6.0 to output 14.0.
3 | network_0/router_level3_1 | Updating lookahead routing information for flit 2.
3 | network_0/router_level3_1 | Completed switch allocation for VC 0 at input 7 (front: 3).
3 | network_0/router_level3_1 |   Scheduling switch connection from input 7.0 to output 13.0.
3 | network_0/router_level3_1 | Updating lookahead routing information for flit 3.
3 | network_0/router_level3_2 | Beginning VC allocation for VC 0 at input 4 (front: 5).
3 | network_0/router_level3_2 |   VC 0 at output 8 is in use by VC 0 at input 2 (front flit: 4).
3 | network_0/router_level3_2 |   Requesting VC 1 at output 8 (in_pri: 0, out_pri: 0).
3 | network_0/router_level3_2 |   Requesting VC 2 at output 8 (in_pri: 0, out_pri: 0).
3 | network_0/router_level3_2 |   Requesting VC 3 at output 8 (in_pri: 0, out_pri: 0).
3 | network_0/router_level3_2/vc_allocator | Input requests = [ 9 -> [ 48@0 49@0 50@0 51@0 ]  16 -> [ 33@0 34@0 35@0 ]  ], output requests = [ 33 -> [ 16@0 ]  34 -> [ 16@0 ]  35 -> [ 16@0 ]  48 -> [ 9@0 ]  49 -> [ 9@0 ]  50 -> [ 9@0 ]  51 -> [ 9@0 ]  ].
3 | network_0/router_level3_2/vc_allocator | Input grants = [ 9 -> 48  16 -> 33  ], output grants = [ 33 -> 16  48 -> 9  ].
3 | network_0/router_level3_2 | Assigning VC 1 at output 8 to VC 0 at input 4.
3 | network_0/router_level3_2 | Beginning switch allocation for VC 0 at input 2 (front: 4).
3 | network_0/router_level3_2 |   Requesting output 8.0 (non-spec, pri: 0).
3 | network_0/router_level3_2/sw_allocator | Input requests = [ 2 -> [ 8@0 ]  ], output requests = [ 8 -> [ 2@0 ]  ].
3 | network_0/router_level3_2/sw_allocator | Input grants = [ 2 -> 8  ], output grants = [ 8 -> 2  ].
3 | network_0/router_level3_2 | Assigning output 8.0 to VC 0 at input 2.0.
3 | network_0/router_level3_2 | Completed VC allocation for VC 0 at input 4 (front: 5).
3 | network_0/router_level3_2 |   Acquiring assigned VC 1 at output 8.
3 | network_0/router_level3_2/buf_4/vc_0 | Changing state from vc_alloc to active.
3 | network_0/router_level3_2 | Completed switch allocation for VC 0 at input 2 (front: 4).
3 | network_0/router_level3_2 |   Scheduling switch connection from input 2.0 to output 8.0.
3 | network_0/router_level3_2 | Updating lookahead routing information for flit 4.
3 | network_0/router_level3_3 | Beginning switch allocation for VC 0 at input 7 (front: 6).
3 | network_0/router_level3_3 |   Requesting output 15.0 (non-spec, pri: 0).
3 | network_0/router_level3_3/sw_allocator | Input requests = [ 7 -> [ 15@0 ]  ], output requests = [ 15 -> [ 7@0 ]  ].
3 | network_0/router_level3_3/sw_allocator | Input grants = [ 7 -> 15  ], output grants = [ 15 -> 7  ].
3 | network_0/router_level3_3 | Assigning output 15.0 to VC 0 at input 7.0.
3 | network_0/router_level3_3 | Completed switch allocation for VC 0 at input 7 (front: 6).
3 | network_0/router_level3_3 |   Scheduling switch connection from input 7.0 to output 15.0.
3 | network_0/router_level3_3 | Updating lookahead routing information for flit 6.
3 | network_0/router_level3_4 | Beginning switch allocation for VC 0 at input 2 (front: 7).
3 | network_0/router_level3_4 |   Requesting output 9.0 (non-spec, pri: 0).
3 | network_0/router_level3_4/sw_allocator | Input requests = [ 2 -> [ 9@0 ]  ], output requests = [ 9 -> [ 2@0 ]  ].
3 | network_0/router_level3_4/sw_allocator | Input grants = [ 2 -> 9  ], output grants = [ 9 -> 2  ].
3 | network_0/router_level3_4 | Assigning output 9.0 to VC 0 at input 2.0.
3 | network_0/router_level3_4 | Completed switch allocation for VC 0 at input 2 (front: 7).
3 | network_0/router_level3_4 |   Scheduling switch connection from input 2.0 to output 9.0.
3 | network_0/router_level3_4 | Updating lookahead routing information for flit 7.
3 | network_0/router_level3_5 | Beginning switch allocation for VC 0 at input 0 (front: 8).
3 | network_0/router_level3_5 |   Requesting output 15.0 (non-spec, pri: 0).
3 | network_0/router_level3_5 | Beginning switch allocation for VC 0 at input 7 (front: 9).
3 | network_0/router_level3_5 |   Requesting output 12.0 (non-spec, pri: 0).
3 | network_0/router_level3_5/sw_allocator | Input requests = [ 0 -> [ 15@0 ]  7 -> [ 12@0 ]  ], output requests = [ 12 -> [ 7@0 ]  15 -> [ 0@0 ]  ].
3 | network_0/router_level3_5/sw_allocator | Input grants = [ 0 -> 15  7 -> 12  ], output grants = [ 12 -> 7  15 -> 0  ].
3 | network_0/router_level3_5 | Assigning output 15.0 to VC 0 at input 0.0.
3 | network_0/router_level3_5 | Assigning output 12.0 to VC 0 at input 7.0.
3 | network_0/router_level3_5 | Completed switch allocation for VC 0 at input 0 (front: 8).
3 | network_0/router_level3_5 |   Scheduling switch connection from input 0.0 to output 15.0.
3 | network_0/router_level3_5 | Updating lookahead routing information for flit 8.
3 | network_0/router_level3_5 | Completed switch allocation for VC 0 at input 7 (front: 9).
3 | network_0/router_level3_5 |   Scheduling switch connection from input 7.0 to output 12.0.
3 | network_0/router_level3_5 | Updating lookahead routing information for flit 9.
3 | network_0/router_level3_6 | Beginning switch allocation for VC 0 at input 5 (front: 10).
3 | network_0/router_level3_6 |   Requesting output 14.0 (non-spec, pri: 0).
3 | network_0/router_level3_6/sw_allocator | Input requests = [ 5 -> [ 14@0 ]  6 -> [ 10@0 ]  ], output requests = [ 10 -> [ 6@0 ]  14 -> [ 5@0 ]  ].
3 | network_0/router_level3_6/sw_allocator | Input grants = [ 5 -> 14  6 -> 10  ], output grants = [ 10 -> 6  14 -> 5  ].
3 | network_0/router_level3_6 | Assigning output 14.0 to VC 0 at input 5.0.
3 | network_0/router_level3_6 | Completed switch allocation for VC 0 at input 5 (front: 10).
3 | network_0/router_level3_6 |   Scheduling switch connection from input 5.0 to output 14.0.
3 | network_0/router_level3_6 | Updating lookahead routing information for flit 10.
4 | network_0/router_level3_1 | Beginning crossbar traversal for flit 1 from input 5.0 to output 9.0.
4 | network_0/router_level3_1 | Beginning crossbar traversal for flit 2 from input 6.0 to output 14.0.
4 | network_0/router_level3_1 | Beginning crossbar traversal for flit 3 from input 7.0 to output 13.0.
4 | network_0/router_level3_1 | Completed crossbar traversal for flit 1 from input 5.0 to output 9.0.
4 | network_0/router_level3_1 | Buffering flit 1 at output 9.
4 | network_0/router_level3_1 | Completed crossbar traversal for flit 2 from input 6.0 to output 14.0.
4 | network_0/router_level3_1 | Buffering flit 2 at output 14.
4 | network_0/router_level3_1 | Completed crossbar traversal for flit 3 from input 7.0 to output 13.0.
4 | network_0/router_level3_1 | Buffering flit 3 at output 13.
4 | network_0/router_level3_2 | Beginning switch allocation for VC 0 at input 4 (front: 5).
4 | network_0/router_level3_2 |   Requesting output 8.0 (non-spec, pri: 0).
4 | network_0/router_level3_2/sw_allocator | Input requests = [ 2 -> [ 12@0 ]  4 -> [ 8@0 ]  ], output requests = [ 8 -> [ 4@0 ]  12 -> [ 2@0 ]  ].
4 | network_0/router_level3_2/sw_allocator | Input grants = [ 2 -> 12  4 -> 8  ], output grants = [ 8 -> 4  12 -> 2  ].
4 | network_0/router_level3_2 | Assigning output 8.0 to VC 0 at input 4.0.
4 | network_0/router_level3_2 | Beginning crossbar traversal for flit 4 from input 2.0 to output 8.0.
4 | network_0/router_level3_2 | Completed switch allocation for VC 0 at input 4 (front: 5).
4 | network_0/router_level3_2 |   Scheduling switch connection from input 4.0 to output 8.0.
4 | network_0/router_level3_2 | Updating lookahead routing information for flit 5.
4 | network_0/router_level3_2 | Completed crossbar traversal for flit 4 from input 2.0 to output 8.0.
4 | network_0/router_level3_2 | Buffering flit 4 at output 8.
4 | network_0/router_level3_3 | Beginning crossbar traversal for flit 6 from input 7.0 to output 15.0.
4 | network_0/router_level3_3 | Completed crossbar traversal for flit 6 from input 7.0 to output 15.0.
4 | network_0/router_level3_3 | Buffering flit 6 at output 15.
4 | network_0/router_level3_4 | Beginning crossbar traversal for flit 7 from input 2.0 to output 9.0.
4 | network_0/router_level3_4 | Completed crossbar traversal for flit 7 from input 2.0 to output 9.0.
4 | network_0/router_level3_4 | Buffering flit 7 at output 9.
4 | network_0/router_level3_5 | Beginning crossbar traversal for flit 8 from input 0.0 to output 15.0.
4 | network_0/router_level3_5 | Beginning crossbar traversal for flit 9 from input 7.0 to output 12.0.
4 | network_0/router_level3_5 | Completed crossbar traversal for flit 8 from input 0.0 to output 15.0.
4 | network_0/router_level3_5 | Buffering flit 8 at output 15.
4 | network_0/router_level3_5 | Completed crossbar traversal for flit 9 from input 7.0 to output 12.0.
4 | network_0/router_level3_5 | Buffering flit 9 at output 12.
4 | network_0/router_level3_6 | Beginning crossbar traversal for flit 10 from input 5.0 to output 14.0.
4 | network_0/router_level3_6 | Completed crossbar traversal for flit 10 from input 5.0 to output 14.0.
4 | network_0/router_level3_6 | Buffering flit 10 at output 14.
4 | network_0/router_level3_1 | Sending flit 1 to channel at output 9.
4 | network_0/router_level3_1 | Sending flit 3 to channel at output 13.
4 | network_0/router_level3_1 | Sending flit 2 to channel at output 14.
4 | network_0/router_level3_2 | Sending flit 4 to channel at output 8.
4 | network_0/router_level3_3 | Sending flit 6 to channel at output 15.
4 | network_0/router_level3_4 | Sending flit 7 to channel at output 9.
4 | network_0/router_level3_5 | Sending flit 9 to channel at output 12.
4 | network_0/router_level3_5 | Sending flit 8 to channel at output 15.
4 | network_0/router_level3_6 | Sending flit 10 to channel at output 14.
5 | network_0/network_0_fchan_20489 | Beginning channel traversal for flit 1 with delay 1.
5 | network_0/network_0_fchan_20493 | Beginning channel traversal for flit 3 with delay 1.
5 | network_0/network_0_fchan_20494 | Beginning channel traversal for flit 2 with delay 1.
5 | network_0/network_0_fchan_20496 | Beginning channel traversal for flit 4 with delay 1.
5 | network_0/network_0_fchan_20511 | Beginning channel traversal for flit 6 with delay 1.
5 | network_0/network_0_fchan_20513 | Beginning channel traversal for flit 7 with delay 1.
5 | network_0/network_0_fchan_20524 | Beginning channel traversal for flit 9 with delay 1.
5 | network_0/network_0_fchan_20527 | Beginning channel traversal for flit 8 with delay 1.
5 | network_0/network_0_fchan_20534 | Beginning channel traversal for flit 10 with delay 1.
5 | network_0/router_level3_2 | Beginning crossbar traversal for flit 5 from input 4.0 to output 8.0.
5 | network_0/router_level3_2 | Completed crossbar traversal for flit 5 from input 4.0 to output 8.0.
5 | network_0/router_level3_2 | Buffering flit 5 at output 8.
5 | network_0/network_0_fchan_20489 | Completed channel traversal for flit 1.
5 | network_0/network_0_fchan_20493 | Completed channel traversal for flit 3.
5 | network_0/network_0_fchan_20494 | Completed channel traversal for flit 2.
5 | network_0/network_0_fchan_20496 | Completed channel traversal for flit 4.
5 | network_0/network_0_fchan_20511 | Completed channel traversal for flit 6.
5 | network_0/network_0_fchan_20513 | Completed channel traversal for flit 7.
5 | network_0/network_0_fchan_20524 | Completed channel traversal for flit 9.
5 | network_0/network_0_fchan_20527 | Completed channel traversal for flit 8.
5 | network_0/network_0_fchan_20534 | Completed channel traversal for flit 10.
5 | network_0/router_level3_2 | Sending flit 5 to channel at output 8.
6 | network_0/network_0_fchan_20496 | Beginning channel traversal for flit 5 with delay 1.
6 | network_0/router_level2_0 | Received flit 4 from channel at input 2.
6 | network_0/router_level2_1 | Received flit 1 from channel at input 1.
6 | network_0/router_level2_1 | Received flit 7 from channel at input 4.
6 | network_0/router_level2_4 | Received flit 9 from channel at input 5.
6 | network_0/router_level2_5 | Received flit 3 from channel at input 1.
6 | network_0/router_level2_6 | Received flit 2 from channel at input 1.
6 | network_0/router_level2_6 | Received flit 10 from channel at input 6.
6 | network_0/router_level2_7 | Received flit 6 from channel at input 3.
6 | network_0/router_level2_7 | Received flit 8 from channel at input 5.
6 | network_0/router_level2_0 | Adding flit 4 to VC 0 at input 2 (state: idle, empty).
6 | network_0/router_level2_0 | Using precomputed lookahead routing information for VC 0 at input 2 (front: 4).
6 | network_0/router_level2_0/buf_2/vc_0 | Changing state from idle to vc_alloc.
6 | network_0/router_level2_0 | Beginning VC allocation for VC 0 at input 2 (front: 4).
6 | network_0/router_level2_0 |   Requesting VC 0 at output 8 (in_pri: 0, out_pri: 0).
6 | network_0/router_level2_0 |   Requesting VC 1 at output 8 (in_pri: 0, out_pri: 0).
6 | network_0/router_level2_0 |   Requesting VC 2 at output 8 (in_pri: 0, out_pri: 0).
6 | network_0/router_level2_0 |   Requesting VC 3 at output 8 (in_pri: 0, out_pri: 0).
6 | network_0/router_level2_0/vc_allocator | Input requests = [ 8 -> [ 32@0 33@0 34@0 35@0 ]  28 -> [ 60@0 61@0 62@0 63@0 ]  ], output requests = [ 32 -> [ 8@0 ]  33 -> [ 8@0 ]  34 -> [ 8@0 ]  35 -> [ 8@0 ]  60 -> [ 28@0 ]  61 -> [ 28@0 ]  62 -> [ 28@0 ]  63 -> [ 28@0 ]  ].
6 | network_0/router_level2_0/vc_allocator | Input grants = [ 8 -> 32  28 -> 60  ], output grants = [ 32 -> 8  60 -> 28  ].
6 | network_0/router_level2_0 | Assigning VC 0 at output 8 to VC 0 at input 2.
6 | network_0/router_level2_0 | Completed VC allocation for VC 0 at input 2 (front: 4).
6 | network_0/router_level2_0 |   Acquiring assigned VC 0 at output 8.
6 | network_0/router_level2_0/buf_2/vc_0 | Changing state from vc_alloc to active.
6 | network_0/router_level2_1 | Adding flit 1 to VC 0 at input 1 (state: idle, empty).
6 | network_0/router_level2_1 | Using precomputed lookahead routing information for VC 0 at input 1 (front: 1).
6 | network_0/router_level2_1/buf_1/vc_0 | Changing state from idle to vc_alloc.
6 | network_0/router_level2_1 | Adding flit 7 to VC 0 at input 4 (state: idle, empty).
6 | network_0/router_level2_1 | Using precomputed lookahead routing information for VC 0 at input 4 (front: 7).
6 | network_0/router_level2_1/buf_4/vc_0 | Changing state from idle to vc_alloc.
6 | network_0/router_level2_1 | Beginning VC allocation for VC 0 at input 1 (front: 1).
6 | network_0/router_level2_1 |   Requesting VC 0 at output 11 (in_pri: 0, out_pri: 0).
6 | network_0/router_level2_1 |   Requesting VC 1 at output 11 (in_pri: 0, out_pri: 0).
6 | network_0/router_level2_1 |   Requesting VC 2 at output 11 (in_pri: 0, out_pri: 0).
6 | network_0/router_level2_1 |   Requesting VC 3 at output 11 (in_pri: 0, out_pri: 0).
6 | network_0/router_level2_1 | Beginning VC allocation for VC 0 at input 4 (front: 7).
6 | network_0/router_level2_1 |   Requesting VC 0 at output 8 (in_pri: 0, out_pri: 0).
6 | network_0/router_level2_1 |   Requesting VC 1 at output 8 (in_pri: 0, out_pri: 0).
6 | network_0/router_level2_1 |   Requesting VC 2 at output 8 (in_pri: 0, out_pri: 0).
6 | network_0/router_level2_1 |   Requesting VC 3 at output 8 (in_pri: 0, out_pri: 0).
6 | network_0/router_level2_1/vc_allocator | Input requests = [ 4 -> [ 44@0 45@0 46@0 47@0 ]  16 -> [ 32@0 33@0 34@0 35@0 ]  ], output requests = [ 32 -> [ 16@0 ]  33 -> [ 16@0 ]  34 -> [ 16@0 ]  35 -> [ 16@0 ]  44 -> [ 4@0 ]  45 -> [ 4@0 ]  46 -> [ 4@0 ]  47 -> [ 4@0 ]  ].
6 | network_0/router_level2_1/vc_allocator | Input grants = [ 4 -> 44  16 -> 32  ], output grants = [ 32 -> 16  44 -> 4  ].
6 | network_0/router_level2_1 | Assigning VC 0 at output 11 to VC 0 at input 1.
6 | network_0/router_level2_1 | Assigning VC 0 at output 8 to VC 0 at input 4.
6 | network_0/router_level2_1 | Completed VC allocation for VC 0 at input 1 (front: 1).
6 | network_0/router_level2_1 |   Acquiring assigned VC 0 at output 11.
6 | network_0/router_level2_1/buf_1/vc_0 | Changing state from vc_alloc to active.
6 | network_0/router_level2_1 | Completed VC allocation for VC 0 at input 4 (front: 7).
6 | network_0/router_level2_1 |   Acquiring assigned VC 0 at output 8.
6 | network_0/router_level2_1/buf_4/vc_0 | Changing state from vc_alloc to active.
6 | network_0/router_level2_4 | Adding flit 9 to VC 0 at input 5 (state: idle, empty).
6 | network_0/router_level2_4 | Using precomputed lookahead routing information for VC 0 at input 5 (front: 9).
6 | network_0/router_level2_4/buf_5/vc_0 | Changing state from idle to vc_alloc.
6 | network_0/router_level2_4 | Beginning VC allocation for VC 0 at input 5 (front: 9).
6 | network_0/router_level2_4 |   Requesting VC 0 at output 9 (in_pri: 0, out_pri: 0).
6 | network_0/router_level2_4 |   Requesting VC 1 at output 9 (in_pri: 0, out_pri: 0).
6 | network_0/router_level2_4 |   Requesting VC 2 at output 9 (in_pri: 0, out_pri: 0).
6 | network_0/router_level2_4 |   Requesting VC 3 at output 9 (in_pri: 0, out_pri: 0).
6 | network_0/router_level2_4/vc_allocator | Input requests = [ 20 -> [ 36@0 37@0 38@0 39@0 ]  28 -> [ 32@0 33@0 34@0 35@0 ]  ], output requests = [ 32 -> [ 28@0 ]  33 -> [ 28@0 ]  34 -> [ 28@0 ]  35 -> [ 28@0 ]  36 -> [ 20@0 ]  37 -> [ 20@0 ]  38 -> [ 20@0 ]  39 -> [ 20@0 ]  ].
6 | network_0/router_level2_4/vc_allocator | Input grants = [ 20 -> 36  28 -> 32  ], output grants = [ 32 -> 28  36 -> 20  ].
6 | network_0/router_level2_4 | Assigning VC 0 at output 9 to VC 0 at input 5.
6 | network_0/router_level2_4 | Completed VC allocation for VC 0 at input 5 (front: 9).
6 | network_0/router_level2_4 |   Acquiring assigned VC 0 at output 9.
6 | network_0/router_level2_4/buf_5/vc_0 | Changing state from vc_alloc to active.
6 | network_0/router_level2_5 | Adding flit 3 to VC 0 at input 1 (state: idle, empty).
6 | network_0/router_level2_5 | Using precomputed lookahead routing information for VC 0 at input 1 (front: 3).
6 | network_0/router_level2_5/buf_1/vc_0 | Changing state from idle to vc_alloc.
6 | network_0/router_level2_5 | Beginning VC allocation for VC 0 at input 1 (front: 3).
6 | network_0/router_level2_5 |   Requesting VC 0 at output 13 (in_pri: 0, out_pri: 0).
6 | network_0/router_level2_5 |   Requesting VC 1 at output 13 (in_pri: 0, out_pri: 0).
6 | network_0/router_level2_5 |   Requesting VC 2 at output 13 (in_pri: 0, out_pri: 0).
6 | network_0/router_level2_5 |   Requesting VC 3 at output 13 (in_pri: 0, out_pri: 0).
6 | network_0/router_level2_5/vc_allocator | Input requests = [ 4 -> [ 52@0 53@0 54@0 55@0 ]  ], output requests = [ 52 -> [ 4@0 ]  53 -> [ 4@0 ]  54 -> [ 4@0 ]  55 -> [ 4@0 ]  ].
6 | network_0/router_level2_5/vc_allocator | Input grants = [ 4 -> 52  ], output grants = [ 52 -> 4  ].
6 | network_0/router_level2_5 | Assigning VC 0 at output 13 to VC 0 at input 1.
6 | network_0/router_level2_5 | Completed VC allocation for VC 0 at input 1 (front: 3).
6 | network_0/router_level2_5 |   Acquiring assigned VC 0 at output 13.
6 | network_0/router_level2_5/buf_1/vc_0 | Changing state from vc_alloc to active.
6 | network_0/router_level2_6 | Adding flit 2 to VC 0 at input 1 (state: idle, empty).
6 | network_0/router_level2_6 | Using precomputed lookahead routing information for VC 0 at input 1 (front: 2).
6 | network_0/router_level2_6/buf_1/vc_0 | Changing state from idle to vc_alloc.
6 | network_0/router_level2_6 | Adding flit 10 to VC 0 at input 6 (state: idle, empty).
6 | network_0/router_level2_6 | Using precomputed lookahead routing information for VC 0 at input 6 (front: 10).
6 | network_0/router_level2_6/buf_6/vc_0 | Changing state from idle to vc_alloc.
6 | network_0/router_level2_6 | Beginning VC allocation for VC 0 at input 1 (front: 2).
6 | network_0/router_level2_6 |   Requesting VC 0 at output 15 (in_pri: 0, out_pri: 0).
6 | network_0/router_level2_6 |   Requesting VC 1 at output 15 (in_pri: 0, out_pri: 0).
6 | network_0/router_level2_6 |   Requesting VC 2 at output 15 (in_pri: 0, out_pri: 0).
6 | network_0/router_level2_6 |   Requesting VC 3 at output 15 (in_pri: 0, out_pri: 0).
6 | network_0/router_level2_6 | Beginning VC allocation for VC 0 at input 6 (front: 10).
6 | network_0/router_level2_6 |   Requesting VC 0 at output 14 (in_pri: 0, out_pri: 0).
6 | network_0/router_level2_6 |   Requesting VC 1 at output 14 (in_pri: 0, out_pri: 0).
6 | network_0/router_level2_6 |   Requesting VC 2 at output 14 (in_pri: 0, out_pri: 0).
6 | network_0/router_level2_6 |   Requesting VC 3 at output 14 (in_pri: 0, out_pri: 0).
6 | network_0/router_level2_6/vc_allocator | Input requests = [ 4 -> [ 60@0 61@0 62@0 63@0 ]  24 -> [ 56@0 57@0 58@0 59@0 ]  ], output requests = [ 56 -> [ 24@0 ]  57 -> [ 24@0 ]  58 -> [ 24@0 ]  59 -> [ 24@0 ]  60 -> [ 4@0 ]  61 -> [ 4@0 ]  62 -> [ 4@0 ]  63 -> [ 4@0 ]  ].
6 | network_0/router_level2_6/vc_allocator | Input grants = [ 4 -> 60  24 -> 56  ], output grants = [ 56 -> 24  60 -> 4  ].
6 | network_0/router_level2_6 | Assigning VC 0 at output 15 to VC 0 at input 1.
6 | network_0/router_level2_6 | Assigning VC 0 at output 14 to VC 0 at input 6.
6 | network_0/router_level2_6 | Completed VC allocation for VC 0 at input 1 (front: 2).
6 | network_0/router_level2_6 |   Acquiring assigned VC 0 at output 15.
6 | network_0/router_level2_6/buf_1/vc_0 | Changing state from vc_alloc to active.
6 | network_0/router_level2_6 | Completed VC allocation for VC 0 at input 6 (front: 10).
6 | network_0/router_level2_6 |   Acquiring assigned VC 0 at output 14.
6 | network_0/router_level2_6/buf_6/vc_0 | Changing state from vc_alloc to active.
6 | network_0/router_level2_7 | Adding flit 6 to VC 0 at input 3 (state: idle, empty).
6 | network_0/router_level2_7 | Using precomputed lookahead routing information for VC 0 at input 3 (front: 6).
6 | network_0/router_level2_7/buf_3/vc_0 | Changing state from idle to vc_alloc.
6 | network_0/router_level2_7 | Adding flit 8 to VC 0 at input 5 (state: idle, empty).
6 | network_0/router_level2_7 | Using precomputed lookahead routing information for VC 0 at input 5 (front: 8).
6 | network_0/router_level2_7/buf_5/vc_0 | Changing state from idle to vc_alloc.
6 | network_0/router_level2_7 | Beginning VC allocation for VC 0 at input 3 (front: 6).
6 | network_0/router_level2_7 |   Requesting VC 0 at output 13 (in_pri: 0, out_pri: 0).
6 | network_0/router_level2_7 |   Requesting VC 1 at output 13 (in_pri: 0, out_pri: 0).
6 | network_0/router_level2_7 |   Requesting VC 2 at output 13 (in_pri: 0, out_pri: 0).
6 | network_0/router_level2_7 |   Requesting VC 3 at output 13 (in_pri: 0, out_pri: 0).
6 | network_0/router_level2_7 | Beginning VC allocation for VC 0 at input 5 (front: 8).
6 | network_0/router_level2_7 |   Requesting VC 0 at output 13 (in_pri: 0, out_pri: 0).
6 | network_0/router_level2_7 |   Requesting VC 1 at output 13 (in_pri: 0, out_pri: 0).
6 | network_0/router_level2_7 |   Requesting VC 2 at output 13 (in_pri: 0, out_pri: 0).
6 | network_0/router_level2_7 |   Requesting VC 3 at output 13 (in_pri: 0, out_pri: 0).
6 | network_0/router_level2_7/vc_allocator | Input requests = [ 12 -> [ 52@0 53@0 54@0 55@0 ]  20 -> [ 52@0 53@0 54@0 55@0 ]  ], output requests = [ 52 -> [ 12@0 20@0 ]  53 -> [ 12@0 20@0 ]  54 -> [ 12@0 20@0 ]  55 -> [ 12@0 20@0 ]  ].
6 | network_0/router_level2_7/vc_allocator | Input grants = [ 12 -> 52  ], output grants = [ 52 -> 12  ].
6 | network_0/router_level2_7 | Assigning VC 0 at output 13 to VC 0 at input 3.
6 | network_0/router_level2_7 | VC allocation failed for VC 0 at input 5.
6 | network_0/router_level2_7 | Completed VC allocation for VC 0 at input 3 (front: 6).
6 | network_0/router_level2_7 |   Acquiring assigned VC 0 at output 13.
6 | network_0/router_level2_7/buf_3/vc_0 | Changing state from vc_alloc to active.
6 | network_0/router_level2_7 | Completed VC allocation for VC 0 at input 5 (front: 8).
6 | network_0/router_level2_7 |   No output VC allocated.
6 | network_0/network_0_fchan_20496 | Completed channel traversal for flit 5.
7 | network_0/router_level2_0 | Received flit 5 from channel at input 2.
7 | network_0/router_level2_0 | Adding flit 5 to VC 1 at input 2 (state: idle, empty).
7 | network_0/router_level2_0 | Using precomputed lookahead routing information for VC 1 at input 2 (front: 5).
7 | network_0/router_level2_0/buf_2/vc_1 | Changing state from idle to vc_alloc.
7 | network_0/router_level2_0 | Beginning VC allocation for VC 1 at input 2 (front: 5).
7 | network_0/router_level2_0 |   Requesting VC 0 at output 13 (in_pri: 0, out_pri: 0).
7 | network_0/router_level2_0 |   Requesting VC 1 at output 13 (in_pri: 0, out_pri: 0).
7 | network_0/router_level2_0 |   Requesting VC 2 at output 13 (in_pri: 0, out_pri: 0).
7 | network_0/router_level2_0 |   Requesting VC 3 at output 13 (in_pri: 0, out_pri: 0).
7 | network_0/router_level2_0/vc_allocator | Input requests = [ 0 -> [ 61@0 62@0 63@0 ]  9 -> [ 52@0 53@0 54@0 55@0 ]  16 -> [ 44@0 45@0 46@0 47@0 ]  20 -> [ 61@0 62@0 63@0 ]  ], output requests = [ 44 -> [ 16@0 ]  45 -> [ 16@0 ]  46 -> [ 16@0 ]  47 -> [ 16@0 ]  52 -> [ 9@0 ]  53 -> [ 9@0 ]  54 -> [ 9@0 ]  55 -> [ 9@0 ]  61 -> [ 0@0 20@0 ]  62 -> [ 0@0 20@0 ]  63 -> [ 0@0 20@0 ]  ].
7 | network_0/router_level2_0/vc_allocator | Input grants = [ 0 -> 61  9 -> 52  16 -> 44  ], output grants = [ 44 -> 16  52 -> 9  61 -> 0  ].
7 | network_0/router_level2_0 | Assigning VC 0 at output 13 to VC 1 at input 2.
7 | network_0/router_level2_0 | Beginning switch allocation for VC 0 at input 2 (front: 4).
7 | network_0/router_level2_0 |   Requesting output 8.0 (non-spec, pri: 0).
7 | network_0/router_level2_0/sw_allocator | Input requests = [ 2 -> [ 8@0 ]  7 -> [ 15@0 ]  ], output requests = [ 8 -> [ 2@0 ]  15 -> [ 7@0 ]  ].
7 | network_0/router_level2_0/sw_allocator | Input grants = [ 2 -> 8  7 -> 15  ], output grants = [ 8 -> 2  15 -> 7  ].
7 | network_0/router_level2_0 | Assigning output 8.0 to VC 0 at input 2.0.
7 | network_0/router_level2_0 | Completed VC allocation for VC 1 at input 2 (front: 5).
7 | network_0/router_level2_0 |   Acquiring assigned VC 0 at output 13.
7 | network_0/router_level2_0/buf_2/vc_1 | Changing state from vc_alloc to active.
7 | network_0/router_level2_0 | Completed switch allocation for VC 0 at input 2 (front: 4).
7 | network_0/router_level2_0 |   Scheduling switch connection from input 2.0 to output 8.0.
7 | network_0/router_level2_0 | Updating lookahead routing information for flit 4.
7 | network_0/router_level2_1 | Beginning switch allocation for VC 0 at input 1 (front: 1).
7 | network_0/router_level2_1 |   Requesting output 11.0 (non-spec, pri: 0).
7 | network_0/router_level2_1 | Beginning switch allocation for VC 0 at input 4 (front: 7).
7 | network_0/router_level2_1 |   Requesting output 8.0 (non-spec, pri: 0).
7 | network_0/router_level2_1/sw_allocator | Input requests = [ 1 -> [ 11@0 ]  4 -> [ 8@0 ]  ], output requests = [ 8 -> [ 4@0 ]  11 -> [ 1@0 ]  ].
7 | network_0/router_level2_1/sw_allocator | Input grants = [ 1 -> 11  4 -> 8  ], output grants = [ 8 -> 4  11 -> 1  ].
7 | network_0/router_level2_1 | Assigning output 11.0 to VC 0 at input 1.0.
7 | network_0/router_level2_1 | Assigning output 8.0 to VC 0 at input 4.0.
7 | network_0/router_level2_1 | Completed switch allocation for VC 0 at input 1 (front: 1).
7 | network_0/router_level2_1 |   Scheduling switch connection from input 1.0 to output 11.0.
7 | network_0/router_level2_1 | Updating lookahead routing information for flit 1.
7 | network_0/router_level2_1 | Completed switch allocation for VC 0 at input 4 (front: 7).
7 | network_0/router_level2_1 |   Scheduling switch connection from input 4.0 to output 8.0.
7 | network_0/router_level2_1 | Updating lookahead routing information for flit 7.
7 | network_0/router_level2_4 | Beginning switch allocation for VC 0 at input 5 (front: 9).
7 | network_0/router_level2_4 |   Requesting output 9.0 (non-spec, pri: 0).
7 | network_0/router_level2_4/sw_allocator | Input requests = [ 5 -> [ 9@0 ]  7 -> [ 8@0 ]  ], output requests = [ 8 -> [ 7@0 ]  9 -> [ 5@0 ]  ].
7 | network_0/router_level2_4/sw_allocator | Input grants = [ 5 -> 9  7 -> 8  ], output grants = [ 8 -> 7  9 -> 5  ].
7 | network_0/router_level2_4 | Assigning output 9.0 to VC 0 at input 5.0.
7 | network_0/router_level2_4 | Completed switch allocation for VC 0 at input 5 (front: 9).
7 | network_0/router_level2_4 |   Scheduling switch connection from input 5.0 to output 9.0.
7 | network_0/router_level2_4 | Updating lookahead routing information for flit 9.
7 | network_0/router_level2_5 | Beginning switch allocation for VC 0 at input 1 (front: 3).
7 | network_0/router_level2_5 |   Requesting output 13.0 (non-spec, pri: 0).
7 | network_0/router_level2_5/sw_allocator | Input requests = [ 1 -> [ 13@0 ]  ], output requests = [ 13 -> [ 1@0 ]  ].
7 | network_0/router_level2_5/sw_allocator | Input grants = [ 1 -> 13  ], output grants = [ 13 -> 1  ].
7 | network_0/router_level2_5 | Assigning output 13.0 to VC 0 at input 1.0.
7 | network_0/router_level2_5 | Completed switch allocation for VC 0 at input 1 (front: 3).
7 | network_0/router_level2_5 |   Scheduling switch connection from input 1.0 to output 13.0.
7 | network_0/router_level2_5 | Updating lookahead routing information for flit 3.
7 | network_0/router_level2_6 | Beginning switch allocation for VC 0 at input 1 (front: 2).
7 | network_0/router_level2_6 |   Requesting output 15.0 (non-spec, pri: 0).
7 | network_0/router_level2_6 | Beginning switch allocation for VC 0 at input 6 (front: 10).
7 | network_0/router_level2_6 |   Requesting output 14.0 (non-spec, pri: 0).
7 | network_0/router_level2_6/sw_allocator | Input requests = [ 1 -> [ 15@0 ]  6 -> [ 14@0 ]  ], output requests = [ 14 -> [ 6@0 ]  15 -> [ 1@0 ]  ].
7 | network_0/router_level2_6/sw_allocator | Input grants = [ 1 -> 15  6 -> 14  ], output grants = [ 14 -> 6  15 -> 1  ].
7 | network_0/router_level2_6 | Assigning output 15.0 to VC 0 at input 1.0.
7 | network_0/router_level2_6 | Assigning output 14.0 to VC 0 at input 6.0.
7 | network_0/router_level2_6 | Completed switch allocation for VC 0 at input 1 (front: 2).
7 | network_0/router_level2_6 |   Scheduling switch connection from input 1.0 to output 15.0.
7 | network_0/router_level2_6 | Updating lookahead routing information for flit 2.
7 | network_0/router_level2_6 | Completed switch allocation for VC 0 at input 6 (front: 10).
7 | network_0/router_level2_6 |   Scheduling switch connection from input 6.0 to output 14.0.
7 | network_0/router_level2_6 | Updating lookahead routing information for flit 10.
7 | network_0/router_level2_7 | Beginning VC allocation for VC 0 at input 5 (front: 8).
7 | network_0/router_level2_7 |   VC 0 at output 13 is in use by VC 0 at input 3 (front flit: 6).
7 | network_0/router_level2_7 |   Requesting VC 1 at output 13 (in_pri: 0, out_pri: 0).
7 | network_0/router_level2_7 |   Requesting VC 2 at output 13 (in_pri: 0, out_pri: 0).
7 | network_0/router_level2_7 |   Requesting VC 3 at output 13 (in_pri: 0, out_pri: 0).
7 | network_0/router_level2_7/vc_allocator | Input requests = [ 4 -> [ 48@0 49@0 50@0 51@0 ]  20 -> [ 53@0 54@0 55@0 ]  21 -> [ 53@0 54@0 55@0 ]  28 -> [ 32@0 33@0 34@0 35@0 ]  ], output requests = [ 32 -> [ 28@0 ]  33 -> [ 28@0 ]  34 -> [ 28@0 ]  35 -> [ 28@0 ]  48 -> [ 4@0 ]  49 -> [ 4@0 ]  50 -> [ 4@0 ]  51 -> [ 4@0 ]  53 -> [ 20@0 21@0 ]  54 -> [ 20@0 21@0 ]  55 -> [ 20@0 21@0 ]  ].
7 | network_0/router_level2_7/vc_allocator | Input grants = [ 4 -> 48  20 -> 53  28 -> 32  ], output grants = [ 32 -> 28  48 -> 4  53 -> 20  ].
7 | network_0/router_level2_7 | Assigning VC 1 at output 13 to VC 0 at input 5.
7 | network_0/router_level2_7 | Beginning switch allocation for VC 0 at input 3 (front: 6).
7 | network_0/router_level2_7 |   Requesting output 13.0 (non-spec, pri: 0).
7 | network_0/router_level2_7/sw_allocator | Input requests = [ 3 -> [ 13@0 ]  ], output requests = [ 13 -> [ 3@0 ]  ].
7 | network_0/router_level2_7/sw_allocator | Input grants = [ 3 -> 13  ], output grants = [ 13 -> 3  ].
7 | network_0/router_level2_7 | Assigning output 13.0 to VC 0 at input 3.0.
7 | network_0/router_level2_7 | Completed VC allocation for VC 0 at input 5 (front: 8).
7 | network_0/router_level2_7 |   Acquiring assigned VC 1 at output 13.
7 | network_0/router_level2_7/buf_5/vc_0 | Changing state from vc_alloc to active.
7 | network_0/router_level2_7 | Completed switch allocation for VC 0 at input 3 (front: 6).
7 | network_0/router_level2_7 |   Scheduling switch connection from input 3.0 to output 13.0.
7 | network_0/router_level2_7 | Updating lookahead routing information for flit 6.
8 | network_0/router_level2_0 | Beginning switch allocation for VC 1 at input 2 (front: 5).
8 | network_0/router_level2_0 |   Requesting output 13.0 (non-spec, pri: 0).
8 | network_0/router_level2_0/sw_allocator | Input requests = [ 0 -> [ 15@0 ]  2 -> [ 13@0 ]  4 -> [ 11@0 ]  ], output requests = [ 11 -> [ 4@0 ]  13 -> [ 2@0 ]  15 -> [ 0@0 ]  ].
8 | network_0/router_level2_0/sw_allocator | Input grants = [ 0 -> 15  2 -> 13  4 -> 11  ], output grants = [ 11 -> 4  13 -> 2  15 -> 0  ].
8 | network_0/router_level2_0 | Assigning output 13.0 to VC 1 at input 2.0.
8 | network_0/router_level2_0 | Beginning crossbar traversal for flit 4 from input 2.0 to output 8.0.
8 | network_0/router_level2_0 | Completed switch allocation for VC 1 at input 2 (front: 5).
8 | network_0/router_level2_0 |   Scheduling switch connection from input 2.0 to output 13.0.
8 | network_0/router_level2_0 | Updating lookahead routing information for flit 5.
8 | network_0/router_level2_0 | Completed crossbar traversal for flit 4 from input 2.0 to output 8.0.
8 | network_0/router_level2_0 | Buffering flit 4 at output 8.
8 | network_0/router_level2_1 | Beginning crossbar traversal for flit 1 from input 1.0 to output 11.0.
8 | network_0/router_level2_1 | Beginning crossbar traversal for flit 7 from input 4.0 to output 8.0.
8 | network_0/router_level2_1 | Completed crossbar traversal for flit 1 from input 1.0 to output 11.0.
8 | network_0/router_level2_1 | Buffering flit 1 at output 11.
8 | network_0/router_level2_1 | Completed crossbar traversal for flit 7 from input 4.0 to output 8.0.
8 | network_0/router_level2_1 | Buffering flit 7 at output 8.
8 | network_0/router_level2_4 | Beginning crossbar traversal for flit 9 from input 5.0 to output 9.0.
8 | network_0/router_level2_4 | Completed crossbar traversal for flit 9 from input 5.0 to output 9.0.
8 | network_0/router_level2_4 | Buffering flit 9 at output 9.
8 | network_0/router_level2_5 | Beginning crossbar traversal for flit 3 from input 1.0 to output 13.0.
8 | network_0/router_level2_5 | Completed crossbar traversal for flit 3 from input 1.0 to output 13.0.
8 | network_0/router_level2_5 | Buffering flit 3 at output 13.
8 | network_0/router_level2_6 | Beginning crossbar traversal for flit 2 from input 1.0 to output 15.0.
8 | network_0/router_level2_6 | Beginning crossbar traversal for flit 10 from input 6.0 to output 14.0.
8 | network_0/router_level2_6 | Completed crossbar traversal for flit 2 from input 1.0 to output 15.0.
8 | network_0/router_level2_6 | Buffering flit 2 at output 15.
8 | network_0/router_level2_6 | Completed crossbar traversal for flit 10 from input 6.0 to output 14.0.
8 | network_0/router_level2_6 | Buffering flit 10 at output 14.
8 | network_0/router_level2_7 | Beginning switch allocation for VC 0 at input 5 (front: 8).
8 | network_0/router_level2_7 |   Requesting output 13.0 (non-spec, pri: 0).
8 | network_0/router_level2_7/sw_allocator | Input requests = [ 1 -> [ 12@0 ]  5 -> [ 13@0 ]  7 -> [ 8@0 ]  ], output requests = [ 8 -> [ 7@0 ]  12 -> [ 1@0 ]  13 -> [ 5@0 ]  ].
8 | network_0/router_level2_7/sw_allocator | Input grants = [ 1 -> 12  5 -> 13  7 -> 8  ], output grants = [ 8 -> 7  12 -> 1  13 -> 5  ].
8 | network_0/router_level2_7 | Assigning output 13.0 to VC 0 at input 5.0.
8 | network_0/router_level2_7 | Beginning crossbar traversal for flit 6 from input 3.0 to output 13.0.
8 | network_0/router_level2_7 | Completed switch allocation for VC 0 at input 5 (front: 8).
8 | network_0/router_level2_7 |   Scheduling switch connection from input 5.0 to output 13.0.
8 | network_0/router_level2_7 | Updating lookahead routing information for flit 8.
8 | network_0/router_level2_7 | Completed crossbar traversal for flit 6 from input 3.0 to output 13.0.
8 | network_0/router_level2_7 | Buffering flit 6 at output 13.
8 | network_0/router_level2_0 | Sending flit 4 to channel at output 8.
8 | network_0/router_level2_1 | Sending flit 7 to channel at output 8.
8 | network_0/router_level2_1 | Sending flit 1 to channel at output 11.
8 | network_0/router_level2_4 | Sending flit 9 to channel at output 9.
8 | network_0/router_level2_5 | Sending flit 3 to channel at output 13.
8 | network_0/router_level2_6 | Sending flit 10 to channel at output 14.
8 | network_0/router_level2_6 | Sending flit 2 to channel at output 15.
8 | network_0/router_level2_7 | Sending flit 6 to channel at output 13.
9 | network_0/network_0_fchan_12288 | Beginning channel traversal for flit 4 with delay 1.
9 | network_0/network_0_fchan_12296 | Beginning channel traversal for flit 7 with delay 1.
9 | network_0/network_0_fchan_12299 | Beginning channel traversal for flit 1 with delay 1.
9 | network_0/network_0_fchan_12321 | Beginning channel traversal for flit 9 with delay 1.
9 | network_0/network_0_fchan_12333 | Beginning channel traversal for flit 3 with delay 1.
9 | network_0/network_0_fchan_12342 | Beginning channel traversal for flit 10 with delay 1.
9 | network_0/network_0_fchan_12343 | Beginning channel traversal for flit 2 with delay 1.
9 | network_0/network_0_fchan_12349 | Beginning channel traversal for flit 6 with delay 1.
9 | network_0/router_level2_0 | Beginning crossbar traversal for flit 5 from input 2.0 to output 13.0.
9 | network_0/router_level2_0 | Completed crossbar traversal for flit 5 from input 2.0 to output 13.0.
9 | network_0/router_level2_0 | Buffering flit 5 at output 13.
9 | network_0/router_level2_7 | Beginning crossbar traversal for flit 8 from input 5.0 to output 13.0.
9 | network_0/router_level2_7 | Completed crossbar traversal for flit 8 from input 5.0 to output 13.0.
9 | network_0/router_level2_7 | Buffering flit 8 at output 13.
9 | network_0/network_0_fchan_12288 | Completed channel traversal for flit 4.
9 | network_0/network_0_fchan_12296 | Completed channel traversal for flit 7.
9 | network_0/network_0_fchan_12299 | Completed channel traversal for flit 1.
9 | network_0/network_0_fchan_12321 | Completed channel traversal for flit 9.
9 | network_0/network_0_fchan_12333 | Completed channel traversal for flit 3.
9 | network_0/network_0_fchan_12342 | Completed channel traversal for flit 10.
9 | network_0/network_0_fchan_12343 | Completed channel traversal for flit 2.
9 | network_0/network_0_fchan_12349 | Completed channel traversal for flit 6.
9 | network_0/router_level2_0 | Sending flit 5 to channel at output 13.
9 | network_0/router_level2_7 | Sending flit 8 to channel at output 13.
10 | network_0/network_0_fchan_12293 | Beginning channel traversal for flit 5 with delay 1.
10 | network_0/network_0_fchan_12349 | Beginning channel traversal for flit 8 with delay 1.
10 | network_0/router_level1_0 | Received flit 4 from channel at input 0.
10 | network_0/router_level1_1 | Received flit 7 from channel at input 0.
10 | network_0/router_level1_12 | Received flit 9 from channel at input 0.
10 | network_0/router_level1_25 | Received flit 1 from channel at input 0.
10 | network_0/router_level1_45 | Received flit 3 from channel at input 0.
10 | network_0/router_level1_47 | Received flit 6 from channel at input 0.
10 | network_0/router_level1_54 | Received flit 10 from channel at input 0.
10 | network_0/router_level1_62 | Received flit 2 from channel at input 0.
10 | network_0/router_level1_0 | Adding flit 4 to VC 0 at input 0 (state: idle, empty).
10 | network_0/router_level1_0 | Using precomputed lookahead routing information for VC 0 at input 0 (front: 4).
10 | network_0/router_level1_0/buf_0/vc_0 | Changing state from idle to vc_alloc.
10 | network_0/router_level1_0 | Beginning VC allocation for VC 0 at input 0 (front: 4).
10 | network_0/router_level1_0 |   Requesting VC 0 at output 11 (in_pri: 0, out_pri: 0).
10 | network_0/router_level1_0 |   Requesting VC 1 at output 11 (in_pri: 0, out_pri: 0).
10 | network_0/router_level1_0 |   Requesting VC 2 at output 11 (in_pri: 0, out_pri: 0).
10 | network_0/router_level1_0 |   Requesting VC 3 at output 11 (in_pri: 0, out_pri: 0).
10 | network_0/router_level1_0/vc_allocator | Input requests = [ 0 -> [ 44@0 45@0 46@0 47@0 ]  8 -> [ 12@0 13@0 14@0 15@0 ]  ], output requests = [ 12 -> [ 8@0 ]  13 -> [ 8@0 ]  14 -> [ 8@0 ]  15 -> [ 8@0 ]  44 -> [ 0@0 ]  45 -> [ 0@0 ]  46 -> [ 0@0 ]  47 -> [ 0@0 ]  ].
10 | network_0/router_level1_0/vc_allocator | Input grants = [ 0 -> 44  8 -> 12  ], output grants = [ 12 -> 8  44 -> 0  ].
10 | network_0/router_level1_0 | Assigning VC 0 at output 11 to VC 0 at input 0.
10 | network_0/router_level1_0 | Completed VC allocation for VC 0 at input 0 (front: 4).
10 | network_0/router_level1_0 |   Acquiring assigned VC 0 at output 11.
10 | network_0/router_level1_0/buf_0/vc_0 | Changing state from vc_alloc to active.
10 | network_0/router_level1_1 | Adding flit 7 to VC 0 at input 0 (state: idle, empty).
10 | network_0/router_level1_1 | Using precomputed lookahead routing information for VC 0 at input 0 (front: 7).
10 | network_0/router_level1_1/buf_0/vc_0 | Changing state from idle to vc_alloc.
10 | network_0/router_level1_1 | Beginning VC allocation for VC 0 at input 0 (front: 7).
10 | network_0/router_level1_1 |   Requesting VC 0 at output 11 (in_pri: 0, out_pri: 0).
10 | network_0/router_level1_1 |   Requesting VC 1 at output 11 (in_pri: 0, out_pri: 0).
10 | network_0/router_level1_1 |   Requesting VC 2 at output 11 (in_pri: 0, out_pri: 0).
10 | network_0/router_level1_1 |   Requesting VC 3 at output 11 (in_pri: 0, out_pri: 0).
10 | network_0/router_level1_1/vc_allocator | Input requests = [ 0 -> [ 44@0 45@0 46@0 47@0 ]  12 -> [ 20@0 21@0 22@0 23@0 ]  16 -> [ 44@0 45@0 46@0 47@0 ]  24 -> [ 40@0 41@0 42@0 43@0 ]  ], output requests = [ 20 -> [ 12@0 ]  21 -> [ 12@0 ]  22 -> [ 12@0 ]  23 -> [ 12@0 ]  40 -> [ 24@0 ]  41 -> [ 24@0 ]  42 -> [ 24@0 ]  43 -> [ 24@0 ]  44 -> [ 0@0 16@0 ]  45 -> [ 0@0 16@0 ]  46 -> [ 0@0 16@0 ]  47 -> [ 0@0 16@0 ]  ].
10 | network_0/router_level1_1/vc_allocator | Input grants = [ 0 -> 44  12 -> 20  24 -> 40  ], output grants = [ 20 -> 12  40 -> 24  44 -> 0  ].
10 | network_0/router_level1_1 | Assigning VC 0 at output 11 to VC 0 at input 0.
10 | network_0/router_level1_1 | Completed VC allocation for VC 0 at input 0 (front: 7).
10 | network_0/router_level1_1 |   Acquiring assigned VC 0 at output 11.
10 | network_0/router_level1_1/buf_0/vc_0 | Changing state from vc_alloc to active.
10 | network_0/router_level1_12 | Adding flit 9 to VC 0 at input 0 (state: idle, empty).
10 | network_0/router_level1_12 | Using precomputed lookahead routing information for VC 0 at input 0 (front: 9).
10 | network_0/router_level1_12/buf_0/vc_0 | Changing state from idle to vc_alloc.
10 | network_0/router_level1_12 | Beginning VC allocation for VC 0 at input 0 (front: 9).
10 | network_0/router_level1_12 |   Requesting VC 0 at output 11 (in_pri: 0, out_pri: 0).
10 | network_0/router_level1_12 |   Requesting VC 1 at output 11 (in_pri: 0, out_pri: 0).
10 | network_0/router_level1_12 |   Requesting VC 2 at output 11 (in_pri: 0, out_pri: 0).
10 | network_0/router_level1_12 |   Requesting VC 3 at output 11 (in_pri: 0, out_pri: 0).
10 | network_0/router_level1_12/vc_allocator | Input requests = [ 0 -> [ 44@0 45@0 46@0 47@0 ]  4 -> [ 44@0 45@0 46@0 47@0 ]  12 -> [ 44@0 45@0 46@0 47@0 ]  16 -> [ 40@0 41@0 42@0 43@0 ]  20 -> [ 36@0 37@0 38@0 39@0 ]  24 -> [ 44@0 45@0 46@0 47@0 ]  28 -> [ 44@0 45@0 46@0 47@0 ]  ], output requests = [ 36 -> [ 20@0 ]  37 -> [ 20@0 ]  38 -> [ 20@0 ]  39 -> [ 20@0 ]  40 -> [ 16@0 ]  41 -> [ 16@0 ]  42 -> [ 16@0 ]  43 -> [ 16@0 ]  44 -> [ 0@0 4@0 12@0 24@0 28@0 ]  45 -> [ 0@0 4@0 12@0 24@0 28@0 ]  46 -> [ 0@0 4@0 12@0 24@0 28@0 ]  47 -> [ 0@0 4@0 12@0 24@0 28@0 ]  ].
10 | network_0/router_level1_12/vc_allocator | Input grants = [ 0 -> 44  16 -> 40  20 -> 36  ], output grants = [ 36 -> 20  40 -> 16  44 -> 0  ].
10 | network_0/router_level1_12 | Assigning VC 0 at output 11 to VC 0 at input 0.
10 | network_0/router_level1_12 | Completed VC allocation for VC 0 at input 0 (front: 9).
10 | network_0/router_level1_12 |   Acquiring assigned VC 0 at output 11.
10 | network_0/router_level1_12/buf_0/vc_0 | Changing state from vc_alloc to active.
10 | network_0/router_level1_25 | Adding flit 1 to VC 0 at input 0 (state: idle, empty).
10 | network_0/router_level1_25 | Using precomputed lookahead routing information for VC 0 at input 0 (front: 1).
10 | network_0/router_level1_25/buf_0/vc_0 | Changing state from idle to vc_alloc.
10 | network_0/router_level1_25 | Beginning VC allocation for VC 0 at input 0 (front: 1).
10 | network_0/router_level1_25 |   Requesting VC 0 at output 11 (in_pri: 0, out_pri: 0).
10 | network_0/router_level1_25 |   Requesting VC 1 at output 11 (in_pri: 0, out_pri: 0).
10 | network_0/router_level1_25 |   Requesting VC 2 at output 11 (in_pri: 0, out_pri: 0).
10 | network_0/router_level1_25 |   Requesting VC 3 at output 11 (in_pri: 0, out_pri: 0).
10 | network_0/router_level1_25/vc_allocator | Input requests = [ 0 -> [ 44@0 45@0 46@0 47@0 ]  16 -> [ 44@0 45@0 46@0 47@0 ]  20 -> [ 44@0 45@0 46@0 47@0 ]  ], output requests = [ 44 -> [ 0@0 16@0 20@0 ]  45 -> [ 0@0 16@0 20@0 ]  46 -> [ 0@0 16@0 20@0 ]  47 -> [ 0@0 16@0 20@0 ]  ].
10 | network_0/router_level1_25/vc_allocator | Input grants = [ 0 -> 44  ], output grants = [ 44 -> 0  ].
10 | network_0/router_level1_25 | Assigning VC 0 at output 11 to VC 0 at input 0.
10 | network_0/router_level1_25 | Completed VC allocation for VC 0 at input 0 (front: 1).
10 | network_0/router_level1_25 |   Acquiring assigned VC 0 at output 11.
10 | network_0/router_level1_25/buf_0/vc_0 | Changing state from vc_alloc to active.
10 | network_0/router_level1_45 | Adding flit 3 to VC 0 at input 0 (state: idle, empty).
10 | network_0/router_level1_45 | Using precomputed lookahead routing information for VC 0 at input 0 (front: 3).
10 | network_0/router_level1_45/buf_0/vc_0 | Changing state from idle to vc_alloc.
10 | network_0/router_level1_45 | Beginning VC allocation for VC 0 at input 0 (front: 3).
10 | network_0/router_level1_45 |   Requesting VC 0 at output 9 (in_pri: 0, out_pri: 0).
10 | network_0/router_level1_45 |   Requesting VC 1 at output 9 (in_pri: 0, out_pri: 0).
10 | network_0/router_level1_45 |   Requesting VC 2 at output 9 (in_pri: 0, out_pri: 0).
10 | network_0/router_level1_45 |   Requesting VC 3 at output 9 (in_pri: 0, out_pri: 0).
10 | network_0/router_level1_45/vc_allocator | Input requests = [ 0 -> [ 36@0 37@0 38@0 39@0 ]  12 -> [ 32@0 33@0 34@0 35@0 ]  16 -> [ 44@0 45@0 46@0 47@0 ]  ], output requests = [ 32 -> [ 12@0 ]  33 -> [ 12@0 ]  34 -> [ 12@0 ]  35 -> [ 12@0 ]  36 -> [ 0@0 ]  37 -> [ 0@0 ]  38 -> [ 0@0 ]  39 -> [ 0@0 ]  44 -> [ 16@0 ]  45 -> [ 16@0 ]  46 -> [ 16@0 ]  47 -> [ 16@0 ]  ].
10 | network_0/router_level1_45/vc_allocator | Input grants = [ 0 -> 36  12 -> 32  16 -> 44  ], output grants = [ 32 -> 12  36 -> 0  44 -> 16  ].
10 | network_0/router_level1_45 | Assigning VC 0 at output 9 to VC 0 at input 0.
10 | network_0/router_level1_45 | Completed VC allocation for VC 0 at input 0 (front: 3).
10 | network_0/router_level1_45 |   Acquiring assigned VC 0 at output 9.
10 | network_0/router_level1_45/buf_0/vc_0 | Changing state from vc_alloc to active.
10 | network_0/router_level1_47 | Adding flit 6 to VC 0 at input 0 (state: idle, empty).
10 | network_0/router_level1_47 | Using precomputed lookahead routing information for VC 0 at input 0 (front: 6).
10 | network_0/router_level1_47/buf_0/vc_0 | Changing state from idle to vc_alloc.
10 | network_0/router_level1_47 | Beginning VC allocation for VC 0 at input 0 (front: 6).
10 | network_0/router_level1_47 |   Requesting VC 0 at output 8 (in_pri: 0, out_pri: 0).
10 | network_0/router_level1_47 |   Requesting VC 1 at output 8 (in_pri: 0, out_pri: 0).
10 | network_0/router_level1_47 |   Requesting VC 2 at output 8 (in_pri: 0, out_pri: 0).
10 | network_0/router_level1_47 |   Requesting VC 3 at output 8 (in_pri: 0, out_pri: 0).
10 | network_0/router_level1_47/vc_allocator | Input requests = [ 0 -> [ 32@0 33@0 34@0 35@0 ]  4 -> [ 44@0 45@0 46@0 47@0 ]  12 -> [ 36@0 37@0 38@0 39@0 ]  20 -> [ 44@0 45@0 46@0 47@0 ]  28 -> [ 40@0 41@0 42@0 43@0 ]  ], output requests = [ 32 -> [ 0@0 ]  33 -> [ 0@0 ]  34 -> [ 0@0 ]  35 -> [ 0@0 ]  36 -> [ 12@0 ]  37 -> [ 12@0 ]  38 -> [ 12@0 ]  39 -> [ 12@0 ]  40 -> [ 28@0 ]  41 -> [ 28@0 ]  42 -> [ 28@0 ]  43 -> [ 28@0 ]  44 -> [ 4@0 20@0 ]  45 -> [ 4@0 20@0 ]  46 -> [ 4@0 20@0 ]  47 -> [ 4@0 20@0 ]  ].
10 | network_0/router_level1_47/vc_allocator | Input grants = [ 0 -> 32  4 -> 44  12 -> 36  28 -> 40  ], output grants = [ 32 -> 0  36 -> 12  40 -> 28  44 -> 4  ].
10 | network_0/router_level1_47 | Assigning VC 0 at output 8 to VC 0 at input 0.
10 | network_0/router_level1_47 | Completed VC allocation for VC 0 at input 0 (front: 6).
10 | network_0/router_level1_47 |   Acquiring assigned VC 0 at output 8.
10 | network_0/router_level1_47/buf_0/vc_0 | Changing state from vc_alloc to active.
10 | network_0/router_level1_54 | Adding flit 10 to VC 0 at input 0 (state: idle, empty).
10 | network_0/router_level1_54 | Using precomputed lookahead routing information for VC 0 at input 0 (front: 10).
10 | network_0/router_level1_54/buf_0/vc_0 | Changing state from idle to vc_alloc.
10 | network_0/router_level1_54 | Beginning VC allocation for VC 0 at input 0 (front: 10).
10 | network_0/router_level1_54 |   Requesting VC 0 at output 9 (in_pri: 0, out_pri: 0).
10 | network_0/router_level1_54 |   Requesting VC 1 at output 9 (in_pri: 0, out_pri: 0).
10 | network_0/router_level1_54 |   Requesting VC 2 at output 9 (in_pri: 0, out_pri: 0).
10 | network_0/router_level1_54 |   Requesting VC 3 at output 9 (in_pri: 0, out_pri: 0).
10 | network_0/router_level1_54/vc_allocator | Input requests = [ 0 -> [ 36@0 37@0 38@0 39@0 ]  12 -> [ 32@0 33@0 34@0 35@0 ]  24 -> [ 40@0 41@0 42@0 43@0 ]  ], output requests = [ 32 -> [ 12@0 ]  33 -> [ 12@0 ]  34 -> [ 12@0 ]  35 -> [ 12@0 ]  36 -> [ 0@0 ]  37 -> [ 0@0 ]  38 -> [ 0@0 ]  39 -> [ 0@0 ]  40 -> [ 24@0 ]  41 -> [ 24@0 ]  42 -> [ 24@0 ]  43 -> [ 24@0 ]  ].
10 | network_0/router_level1_54/vc_allocator | Input grants = [ 0 -> 36  12 -> 32  24 -> 40  ], output grants = [ 32 -> 12  36 -> 0  40 -> 24  ].
10 | network_0/router_level1_54 | Assigning VC 0 at output 9 to VC 0 at input 0.
10 | network_0/router_level1_54 | Completed VC allocation for VC 0 at input 0 (front: 10).
10 | network_0/router_level1_54 |   Acquiring assigned VC 0 at output 9.
10 | network_0/router_level1_54/buf_0/vc_0 | Changing state from vc_alloc to active.
10 | network_0/router_level1_62 | Adding flit 2 to VC 0 at input 0 (state: idle, empty).
10 | network_0/router_level1_62 | Using precomputed lookahead routing information for VC 0 at input 0 (front: 2).
10 | network_0/router_level1_62/buf_0/vc_0 | Changing state from idle to vc_alloc.
10 | network_0/router_level1_62 | Beginning VC allocation for VC 0 at input 0 (front: 2).
10 | network_0/router_level1_62 |   Requesting VC 0 at output 11 (in_pri: 0, out_pri: 0).
10 | network_0/router_level1_62 |   Requesting VC 1 at output 11 (in_pri: 0, out_pri: 0).
10 | network_0/router_level1_62 |   Requesting VC 2 at output 11 (in_pri: 0, out_pri: 0).
10 | network_0/router_level1_62 |   Requesting VC 3 at output 11 (in_pri: 0, out_pri: 0).
10 | network_0/router_level1_62/vc_allocator | Input requests = [ 0 -> [ 44@0 45@0 46@0 47@0 ]  4 -> [ 44@0 45@0 46@0 47@0 ]  20 -> [ 44@0 45@0 46@0 47@0 ]  ], output requests = [ 44 -> [ 0@0 4@0 20@0 ]  45 -> [ 0@0 4@0 20@0 ]  46 -> [ 0@0 4@0 20@0 ]  47 -> [ 0@0 4@0 20@0 ]  ].
10 | network_0/router_level1_62/vc_allocator | Input grants = [ 0 -> 44  ], output grants = [ 44 -> 0  ].
10 | network_0/router_level1_62 | Assigning VC 0 at output 11 to VC 0 at input 0.
10 | network_0/router_level1_62 | Completed VC allocation for VC 0 at input 0 (front: 2).
10 | network_0/router_level1_62 |   Acquiring assigned VC 0 at output 11.
10 | network_0/router_level1_62/buf_0/vc_0 | Changing state from vc_alloc to active.
10 | network_0/network_0_fchan_12293 | Completed channel traversal for flit 5.
10 | network_0/network_0_fchan_12349 | Completed channel traversal for flit 8.
11 | network_0/router_level1_40 | Received flit 5 from channel at input 0.
11 | network_0/router_level1_47 | Received flit 8 from channel at input 0.
11 | network_0/router_level1_0 | Beginning switch allocation for VC 0 at input 0 (front: 4).
11 | network_0/router_level1_0 |   Requesting output 11.0 (non-spec, pri: 0).
11 | network_0/router_level1_0/sw_allocator | Input requests = [ 0 -> [ 11@0 ]  2 -> [ 3@0 ]  ], output requests = [ 3 -> [ 2@0 ]  11 -> [ 0@0 ]  ].
11 | network_0/router_level1_0/sw_allocator | Input grants = [ 0 -> 11  2 -> 3  ], output grants = [ 3 -> 2  11 -> 0  ].
11 | network_0/router_level1_0 | Assigning output 11.0 to VC 0 at input 0.0.
11 | network_0/router_level1_0 | Completed switch allocation for VC 0 at input 0 (front: 4).
11 | network_0/router_level1_0 |   Scheduling switch connection from input 0.0 to output 11.0.
11 | network_0/router_level1_0 | Updating lookahead routing information for flit 4.
11 | network_0/router_level1_1 | Beginning switch allocation for VC 0 at input 0 (front: 7).
11 | network_0/router_level1_1 |   Requesting output 11.0 (non-spec, pri: 0).
11 | network_0/router_level1_1/sw_allocator | Input requests = [ 0 -> [ 11@0 ]  3 -> [ 5@0 ]  6 -> [ 10@0 ]  ], output requests = [ 5 -> [ 3@0 ]  10 -> [ 6@0 ]  11 -> [ 0@0 ]  ].
11 | network_0/router_level1_1/sw_allocator | Input grants = [ 0 -> 11  3 -> 5  6 -> 10  ], output grants = [ 5 -> 3  10 -> 6  11 -> 0  ].
11 | network_0/router_level1_1 | Assigning output 11.0 to VC 0 at input 0.0.
11 | network_0/router_level1_1 | Completed switch allocation for VC 0 at input 0 (front: 7).
11 | network_0/router_level1_1 |   Scheduling switch connection from input 0.0 to output 11.0.
11 | network_0/router_level1_1 | Updating lookahead routing information for flit 7.
11 | network_0/router_level1_12 | Beginning switch allocation for VC 0 at input 0 (front: 9).
11 | network_0/router_level1_12 |   Requesting output 11.0 (non-spec, pri: 0).
11 | network_0/router_level1_12/sw_allocator | Input requests = [ 0 -> [ 11@0 ]  4 -> [ 10@0 ]  5 -> [ 9@0 ]  ], output requests = [ 9 -> [ 5@0 ]  10 -> [ 4@0 ]  11 -> [ 0@0 ]  ].
11 | network_0/router_level1_12/sw_allocator | Input grants = [ 0 -> 11  4 -> 10  5 -> 9  ], output grants = [ 9 -> 5  10 -> 4  11 -> 0  ].
11 | network_0/router_level1_12 | Assigning output 11.0 to VC 0 at input 0.0.
11 | network_0/router_level1_12 | Completed switch allocation for VC 0 at input 0 (front: 9).
11 | network_0/router_level1_12 |   Scheduling switch connection from input 0.0 to output 11.0.
11 | network_0/router_level1_12 | Updating lookahead routing information for flit 9.
11 | network_0/router_level1_25 | Beginning switch allocation for VC 0 at input 0 (front: 1).
11 | network_0/router_level1_25 |   Requesting output 11.0 (non-spec, pri: 0).
11 | network_0/router_level1_25/sw_allocator | Input requests = [ 0 -> [ 11@0 ]  ], output requests = [ 11 -> [ 0@0 ]  ].
11 | network_0/router_level1_25/sw_allocator | Input grants = [ 0 -> 11  ], output grants = [ 11 -> 0  ].
11 | network_0/router_level1_25 | Assigning output 11.0 to VC 0 at input 0.0.
11 | network_0/router_level1_25 | Completed switch allocation for VC 0 at input 0 (front: 1).
11 | network_0/router_level1_25 |   Scheduling switch connection from input 0.0 to output 11.0.
11 | network_0/router_level1_25 | Updating lookahead routing information for flit 1.
11 | network_0/router_level1_40 | Adding flit 5 to VC 0 at input 0 (state: idle, empty).
11 | network_0/router_level1_40 | Using precomputed lookahead routing information for VC 0 at input 0 (front: 5).
11 | network_0/router_level1_40/buf_0/vc_0 | Changing state from idle to vc_alloc.
11 | network_0/router_level1_40 | Beginning VC allocation for VC 0 at input 0 (front: 5).
11 | network_0/router_level1_40 |   VC 0 at output 11 is in use by VC 0 at input 7 (front flit: 138).
11 | network_0/router_level1_40 |   Requesting VC 1 at output 11 (in_pri: 0, out_pri: 0).
11 | network_0/router_level1_40 |   Requesting VC 2 at output 11 (in_pri: 0, out_pri: 0).
11 | network_0/router_level1_40 |   Requesting VC 3 at output 11 (in_pri: 0, out_pri: 0).
11 | network_0/router_level1_40/vc_allocator | Input requests = [ 0 -> [ 45@0 46@0 47@0 ]  4 -> [ 45@0 46@0 47@0 ]  13 -> [ 45@0 46@0 47@0 ]  29 -> [ 40@0 41@0 42@0 43@0 ]  ], output requests = [ 40 -> [ 29@0 ]  41 -> [ 29@0 ]  42 -> [ 29@0 ]  43 -> [ 29@0 ]  45 -> [ 0@0 4@0 13@0 ]  46 -> [ 0@0 4@0 13@0 ]  47 -> [ 0@0 4@0 13@0 ]  ].
11 | network_0/router_level1_40/vc_allocator | Input grants = [ 0 -> 45  29 -> 40  ], output grants = [ 40 -> 29  45 -> 0  ].
11 | network_0/router_level1_40 | Assigning VC 1 at output 11 to VC 0 at input 0.
11 | network_0/router_level1_40 | Completed VC allocation for VC 0 at input 0 (front: 5).
11 | network_0/router_level1_40 |   Acquiring assigned VC 1 at output 11.
11 | network_0/router_level1_40/buf_0/vc_0 | Changing state from vc_alloc to active.
11 | network_0/router_level1_45 | Beginning switch allocation for VC 0 at input 0 (front: 3).
11 | network_0/router_level1_45 |   Requesting output 9.0 (non-spec, pri: 0).
11 | network_0/router_level1_45/sw_allocator | Input requests = [ 0 -> [ 9@0 ]  3 -> [ 8@0 ]  4 -> [ 11@0 ]  ], output requests = [ 8 -> [ 3@0 ]  9 -> [ 0@0 ]  11 -> [ 4@0 ]  ].
11 | network_0/router_level1_45/sw_allocator | Input grants = [ 0 -> 9  3 -> 8  4 -> 11  ], output grants = [ 8 -> 3  9 -> 0  11 -> 4  ].
11 | network_0/router_level1_45 | Assigning output 9.0 to VC 0 at input 0.0.
[...]
27 | network_0/router_level3_376/sw_allocator | Input grants = [ 0 -> 12  1 -> 14  3 -> 15  12 -> 0  15 -> 3  ], output grants = [ 0 -> 12  3 -> 15  12 -> 0  14 -> 1  15 -> 3  ].
27 | network_0/router_level3_376 | Assigning output 0.0 to VC 0 at input 12.0.
27 | network_0/router_level3_376 | Completed switch allocation for VC 0 at input 12 (front: 9).
27 | network_0/router_level3_376 |   Scheduling switch connection from input 12.0 to output 0.0.
27 | network_0/router_level3_424 | Beginning switch allocation for VC 0 at input 14 (front: 10).
27 | network_0/router_level3_424 |   Requesting output 0.0 (non-spec, pri: 0).
27 | network_0/router_level3_424/sw_allocator | Input requests = [ 7 -> [ 9@0 ]  9 -> [ 7@0 ]  10 -> [ 4@0 ]  14 -> [ 0@0 ]  ], output requests = [ 0 -> [ 14@0 ]  4 -> [ 10@0 ]  7 -> [ 9@0 ]  9 -> [ 7@0 ]  ].
27 | network_0/router_level3_424/sw_allocator | Input grants = [ 7 -> 9  9 -> 7  10 -> 4  14 -> 0  ], output grants = [ 0 -> 14  4 -> 10  7 -> 9  9 -> 7  ].
27 | network_0/router_level3_424 | Assigning output 0.0 to VC 0 at input 14.0.
27 | network_0/router_level3_424 | Completed switch allocation for VC 0 at input 14 (front: 10).
27 | network_0/router_level3_424 |   Scheduling switch connection from input 14.0 to output 0.0.
28 | network_0/router_level2_160 | Beginning crossbar traversal for flit 5 from input 13.0 to output 0.0.
28 | network_0/router_level2_160 | Completed crossbar traversal for flit 5 from input 13.0 to output 0.0.
28 | network_0/router_level2_160 | Buffering flit 5 at output 0.
28 | network_0/router_level3_104 | Beginning crossbar traversal for flit 1 from input 9.0 to output 0.0.
28 | network_0/router_level3_104 | Completed crossbar traversal for flit 1 from input 9.0 to output 0.0.
28 | network_0/router_level3_104 | Buffering flit 1 at output 0.
28 | network_0/router_level3_112 | Beginning crossbar traversal for flit 2 from input 14.0 to output 0.0.
28 | network_0/router_level3_112 | Completed crossbar traversal for flit 2 from input 14.0 to output 0.0.
28 | network_0/router_level3_112 | Buffering flit 2 at output 0.
28 | network_0/router_level3_120 | Beginning crossbar traversal for flit 3 from input 13.0 to output 0.0.
28 | network_0/router_level3_120 | Completed crossbar traversal for flit 3 from input 13.0 to output 0.0.
28 | network_0/router_level3_120 | Buffering flit 3 at output 0.
28 | network_0/router_level3_144 | Beginning crossbar traversal for flit 4 from input 8.0 to output 0.0.
28 | network_0/router_level3_144 | Completed crossbar traversal for flit 4 from input 8.0 to output 0.0.
28 | network_0/router_level3_144 | Buffering flit 4 at output 0.
28 | network_0/router_level3_248 | Beginning crossbar traversal for flit 6 from input 15.0 to output 0.0.
28 | network_0/router_level3_248 | Completed crossbar traversal for flit 6 from input 15.0 to output 0.0.
28 | network_0/router_level3_248 | Buffering flit 6 at output 0.
28 | network_0/router_level3_272 | Beginning crossbar traversal for flit 7 from input 9.0 to output 0.0.
28 | network_0/router_level3_272 | Completed crossbar traversal for flit 7 from input 9.0 to output 0.0.
28 | network_0/router_level3_272 | Buffering flit 7 at output 0.
28 | network_0/router_level3_320 | Beginning switch allocation for VC 0 at input 15 (front: 8).
28 | network_0/router_level3_320 |   Requesting output 0.0 (non-spec, pri: 0).
28 | network_0/router_level3_320/sw_allocator | Input requests = [ 1 -> [ 14@0 ]  10 -> [ 5@0 ]  14 -> [ 4@0 ]  15 -> [ 0@0 ]  ], output requests = [ 0 -> [ 15@0 ]  4 -> [ 14@0 ]  5 -> [ 10@0 ]  14 -> [ 1@0 ]  ].
28 | network_0/router_level3_320/sw_allocator | Input grants = [ 1 -> 14  10 -> 5  14 -> 4  15 -> 0  ], output grants = [ 0 -> 15  4 -> 14  5 -> 10  14 -> 1  ].
28 | network_0/router_level3_320 | Assigning output 0.0 to VC 0 at input 15.0.
28 | network_0/router_level3_320 | Completed switch allocation for VC 0 at input 15 (front: 8).
28 | network_0/router_level3_320 |   Scheduling switch connection from input 15.0 to output 0.0.
28 | network_0/router_level3_376 | Beginning crossbar traversal for flit 9 from input 12.0 to output 0.0.
28 | network_0/router_level3_376 | Completed crossbar traversal for flit 9 from input 12.0 to output 0.0.
28 | network_0/router_level3_376 | Buffering flit 9 at output 0.
28 | network_0/router_level3_424 | Beginning crossbar traversal for flit 10 from input 14.0 to output 0.0.
28 | network_0/router_level3_424 | Completed crossbar traversal for flit 10 from input 14.0 to output 0.0.
28 | network_0/router_level3_424 | Buffering flit 10 at output 0.
28 | network_0/router_level2_160 | Sending flit 5 to channel at output 0.
28 | network_0/router_level3_104 | Sending flit 1 to channel at output 0.
28 | network_0/router_level3_112 | Sending flit 2 to channel at output 0.
28 | network_0/router_level3_120 | Sending flit 3 to channel at output 0.
28 | network_0/router_level3_144 | Sending flit 4 to channel at output 0.
28 | network_0/router_level3_248 | Sending flit 6 to channel at output 0.
28 | network_0/router_level3_272 | Sending flit 7 to channel at output 0.
28 | network_0/router_level3_376 | Sending flit 9 to channel at output 0.
28 | network_0/router_level3_424 | Sending flit 10 to channel at output 0.
29 | network_0/network_0_fchan_egress832 | Beginning channel traversal for flit 1 with delay 1.
29 | network_0/network_0_fchan_egress896 | Beginning channel traversal for flit 2 with delay 1.
29 | network_0/network_0_fchan_egress960 | Beginning channel traversal for flit 3 with delay 1.
29 | network_0/network_0_fchan_egress1152 | Beginning channel traversal for flit 4 with delay 1.
29 | network_0/network_0_fchan_egress1984 | Beginning channel traversal for flit 6 with delay 1.
29 | network_0/network_0_fchan_egress2176 | Beginning channel traversal for flit 7 with delay 1.
29 | network_0/network_0_fchan_egress3008 | Beginning channel traversal for flit 9 with delay 1.
29 | network_0/network_0_fchan_egress3392 | Beginning channel traversal for flit 10 with delay 1.
29 | network_0/network_0_fchan_17664 | Beginning channel traversal for flit 5 with delay 1.
29 | network_0/router_level3_320 | Beginning crossbar traversal for flit 8 from input 15.0 to output 0.0.
29 | network_0/router_level3_320 | Completed crossbar traversal for flit 8 from input 15.0 to output 0.0.
29 | network_0/router_level3_320 | Buffering flit 8 at output 0.
29 | network_0/network_0_fchan_egress832 | Completed channel traversal for flit 1.
29 | network_0/network_0_fchan_egress896 | Completed channel traversal for flit 2.
29 | network_0/network_0_fchan_egress960 | Completed channel traversal for flit 3.
29 | network_0/network_0_fchan_egress1152 | Completed channel traversal for flit 4.
29 | network_0/network_0_fchan_egress1984 | Completed channel traversal for flit 6.
29 | network_0/network_0_fchan_egress2176 | Completed channel traversal for flit 7.
29 | network_0/network_0_fchan_egress3008 | Completed channel traversal for flit 9.
29 | network_0/network_0_fchan_egress3392 | Completed channel traversal for flit 10.
29 | network_0/network_0_fchan_17664 | Completed channel traversal for flit 5.
29 | network_0/router_level3_320 | Sending flit 8 to channel at output 0.
30 | node832 | Ejecting flit 1 (packet 1) from VC 0.
30 | node896 | Ejecting flit 2 (packet 2) from VC 0.
30 | node960 | Ejecting flit 3 (packet 3) from VC 0.
30 | node1152 | Ejecting flit 4 (packet 4) from VC 0.
30 | node1984 | Ejecting flit 6 (packet 6) from VC 0.
30 | node2176 | Ejecting flit 7 (packet 7) from VC 0.
30 | node3008 | Ejecting flit 9 (packet 9) from VC 0.
30 | node3392 | Ejecting flit 10 (packet 10) from VC 0.
30 | network_0/network_0_fchan_egress2560 | Beginning channel traversal for flit 8 with delay 1.
30 | network_0/router_level3_160 | Received flit 5 from channel at input 8.
30 | node832 | Injecting credit for VC 0 into subnet 0.
30 | node832 | Retiring flit 1 (packet 1, src = 13, dest = 832, hops = 7, flat = 30).
30 | node832 | Retiring packet 1 (plat = 30, nlat = 30, frag = 0, src = 13, dest = 832).
30 | node896 | Injecting credit for VC 0 into subnet 0.
30 | node896 | Retiring flit 2 (packet 2, src = 14, dest = 896, hops = 7, flat = 30).
30 | node896 | Retiring packet 2 (plat = 30, nlat = 30, frag = 0, src = 14, dest = 896).
30 | node960 | Injecting credit for VC 0 into subnet 0.
30 | node960 | Retiring flit 3 (packet 3, src = 15, dest = 960, hops = 7, flat = 30).
30 | node960 | Retiring packet 3 (plat = 30, nlat = 30, frag = 0, src = 15, dest = 960).
30 | node1152 | Injecting credit for VC 0 into subnet 0.
30 | node1152 | Retiring flit 4 (packet 4, src = 18, dest = 1152, hops = 7, flat = 30).
30 | node1152 | Retiring packet 4 (plat = 30, nlat = 30, frag = 0, src = 18, dest = 1152).
30 | node1984 | Injecting credit for VC 0 into subnet 0.
30 | node1984 | Retiring flit 6 (packet 6, src = 31, dest = 1984, hops = 7, flat = 30).
30 | node1984 | Retiring packet 6 (plat = 30, nlat = 30, frag = 0, src = 31, dest = 1984).
30 | node2176 | Injecting credit for VC 0 into subnet 0.
30 | node2176 | Retiring flit 7 (packet 7, src = 34, dest = 2176, hops = 7, flat = 30).
30 | node2176 | Retiring packet 7 (plat = 30, nlat = 30, frag = 0, src = 34, dest = 2176).
30 | node3008 | Injecting credit for VC 0 into subnet 0.
30 | node3008 | Retiring flit 9 (packet 9, src = 47, dest = 3008, hops = 7, flat = 30).
30 | node3008 | Retiring packet 9 (plat = 30, nlat = 30, frag = 0, src = 47, dest = 3008).
30 | node3392 | Injecting credit for VC 0 into subnet 0.
30 | node3392 | Retiring flit 10 (packet 10, src = 53, dest = 3392, hops = 7, flat = 30).
30 | node3392 | Retiring packet 10 (plat = 30, nlat = 30, frag = 0, src = 53, dest = 3392).
30 | network_0/router_level3_160 | Adding flit 5 to VC 0 at input 8 (state: idle, empty).
30 | network_0/router_level3_160 | Using precomputed lookahead routing information for VC 0 at input 8 (front: 5).
30 | network_0/router_level3_160/buf_8/vc_0 | Changing state from idle to vc_alloc.
30 | network_0/router_level3_160 | Beginning VC allocation for VC 0 at input 8 (front: 5).
30 | network_0/router_level3_160 |   VC 0 at output 0 is in use by VC 0 at input 14 (front flit: 3603).
30 | network_0/router_level3_160 |   Requesting VC 1 at output 0 (in_pri: 0, out_pri: 0).
30 | network_0/router_level3_160 |   Requesting VC 2 at output 0 (in_pri: 0, out_pri: 0).
30 | network_0/router_level3_160 |   Requesting VC 3 at output 0 (in_pri: 0, out_pri: 0).
30 | network_0/router_level3_160/vc_allocator | Input requests = [ 16 -> [ 44@0 46@0 47@0 ]  24 -> [ 60@0 61@0 62@0 63@0 ]  32 -> [ 1@0 2@0 3@0 ]  44 -> [ 28@0 29@0 30@0 31@0 ]  50 -> [ 24@0 25@0 26@0 27@0 ]  ], output requests = [ 1 -> [ 32@0 ]  2 -> [ 32@0 ]  3 -> [ 32@0 ]  24 -> [ 50@0 ]  25 -> [ 50@0 ]  26 -> [ 50@0 ]  27 -> [ 50@0 ]  28 -> [ 44@0 ]  29 -> [ 44@0 ]  30 -> [ 44@0 ]  31 -> [ 44@0 ]  44 -> [ 16@0 ]  46 -> [ 16@0 ]  47 -> [ 16@0 ]  60 -> [ 24@0 ]  61 -> [ 24@0 ]  62 -> [ 24@0 ]  63 -> [ 24@0 ]  ].
30 | network_0/router_level3_160/vc_allocator | Input grants = [ 16 -> 46  24 -> 60  32 -> 1  44 -> 29  50 -> 24  ], output grants = [ 1 -> 32  24 -> 50  29 -> 44  46 -> 16  60 -> 24  ].
30 | network_0/router_level3_160 | Assigning VC 1 at output 0 to VC 0 at input 8.
30 | network_0/router_level3_160 | Completed VC allocation for VC 0 at input 8 (front: 5).
30 | network_0/router_level3_160 |   Acquiring assigned VC 1 at output 0.
30 | network_0/router_level3_160/buf_8/vc_0 | Changing state from vc_alloc to active.
30 | network_0/network_0_fchan_egress2560 | Completed channel traversal for flit 8.
31 | node2560 | Ejecting flit 8 (packet 8) from VC 0.
31 | node2560 | Injecting credit for VC 0 into subnet 0.
31 | node2560 | Retiring flit 8 (packet 8, src = 40, dest = 2560, hops = 7, flat = 31).
31 | node2560 | Retiring packet 8 (plat = 31, nlat = 31, frag = 0, src = 40, dest = 2560).
31 | network_0/router_level3_160 | Beginning switch allocation for VC 0 at input 8 (front: 5).
31 | network_0/router_level3_160 |   Requesting output 0.0 (non-spec, pri: 0).
31 | network_0/router_level3_160/sw_allocator | Input requests = [ 4 -> [ 11@0 ]  6 -> [ 15@0 ]  8 -> [ 0@0 ]  11 -> [ 7@0 ]  12 -> [ 6@0 ]  ], output requests = [ 0 -> [ 8@0 ]  6 -> [ 12@0 ]  7 -> [ 11@0 ]  11 -> [ 4@0 ]  15 -> [ 6@0 ]  ].
31 | network_0/router_level3_160/sw_allocator | Input grants = [ 4 -> 11  6 -> 15  8 -> 0  11 -> 7  12 -> 6  ], output grants = [ 0 -> 8  6 -> 12  7 -> 11  11 -> 4  15 -> 6  ].
31 | network_0/router_level3_160 | Assigning output 0.0 to VC 0 at input 8.0.
31 | network_0/router_level3_160 | Completed switch allocation for VC 0 at input 8 (front: 5).
31 | network_0/router_level3_160 |   Scheduling switch connection from input 8.0 to output 0.0.
32 | network_0/router_level3_160 | Beginning crossbar traversal for flit 5 from input 8.0 to output 0.0.
32 | network_0/router_level3_160 | Completed crossbar traversal for flit 5 from input 8.0 to output 0.0.
32 | network_0/router_level3_160 | Buffering flit 5 at output 0.
32 | network_0/router_level3_160 | Sending flit 5 to channel at output 0.
33 | network_0/network_0_fchan_egress1280 | Beginning channel traversal for flit 5 with delay 1.
33 | network_0/network_0_fchan_egress1280 | Completed channel traversal for flit 5.
34 | node1280 | Ejecting flit 5 (packet 5) from VC 1.
34 | node1280 | Injecting credit for VC 1 into subnet 0.
34 | node1280 | Retiring flit 5 (packet 5, src = 20, dest = 1280, hops = 7, flat = 34).
34 | node1280 | Retiring packet 5 (plat = 34, nlat = 34, frag = 0, src = 20, dest = 1280).
Class 0:
Packet latency average = 33.6503
	minimum = 6
	maximum = 94
Network latency average = 33.6503
	minimum = 6
	maximum = 94
Slowest packet = 389273
Flit latency average = 33.6503
	minimum = 6
	maximum = 94
Slowest flit = 389273
Fragmentation average = 0
	minimum = 0
	maximum = 0
Injected packet rate average = 0.299721
	minimum = 0.247 (at node 3445)
	maximum = 0.345 (at node 761)
Accepted packet rate average = 0.289484
	minimum = 0.241 (at node 235)
	maximum = 0.338 (at node 433)
Injected flit rate average = 0.299721
	minimum = 0.247 (at node 3445)
	maximum = 0.345 (at node 761)
Accepted flit rate average= 0.289484
	minimum = 0.241 (at node 235)
	maximum = 0.338 (at node 433)
Injected packet length average = 1
Accepted packet length average = 1
Total in-flight flits = 41931 (0 measured)
latency change    = 1
throughput change = 1
Class 0:
Packet latency average = 33.7339
	minimum = 6
	maximum = 94
Network latency average = 33.7339
	minimum = 6
	maximum = 94
Slowest packet = 389273
Flit latency average = 33.7339
	minimum = 6
	maximum = 94
Slowest flit = 389273
Fragmentation average = 0
	minimum = 0
	maximum = 0
Injected packet rate average = 0.299846
	minimum = 0.266 (at node 562)
	maximum = 0.3355 (at node 3923)
Accepted packet rate average = 0.294814
	minimum = 0.263 (at node 3208)
	maximum = 0.3295 (at node 2372)
Injected flit rate average = 0.299846
	minimum = 0.266 (at node 562)
	maximum = 0.3355 (at node 3923)
Accepted flit rate average= 0.294814
	minimum = 0.263 (at node 3208)
	maximum = 0.3295 (at node 2372)
Injected packet length average = 1
Accepted packet length average = 1
Total in-flight flits = 41223 (0 measured)
latency change    = 0.00247823
throughput change = 0.018079
Class 0:
Packet latency average = 33.8136
	minimum = 6
	maximum = 89
Network latency average = 33.8136
	minimum = 6
	maximum = 89
Slowest packet = 3491202
Flit latency average = 33.8136
	minimum = 6
	maximum = 89
Slowest flit = 3491202
Fragmentation average = 0
	minimum = 0
	maximum = 0
Injected packet rate average = 0.300108
	minimum = 0.244 (at node 3853)
	maximum = 0.35 (at node 2471)
Accepted packet rate average = 0.300015
	minimum = 0.246 (at node 892)
	maximum = 0.353 (at node 2534)
Injected flit rate average = 0.300108
	minimum = 0.244 (at node 3853)
	maximum = 0.35 (at node 2471)
Accepted flit rate average= 0.300015
	minimum = 0.246 (at node 892)
	maximum = 0.353 (at node 2534)
Injected packet length average = 1
Accepted packet length average = 1
Total in-flight flits = 41607 (0 measured)
latency change    = 0.00235906
throughput change = 0.0173344
Warmed up ...Time used is 3000 cycles
Class 0:
Packet latency average = 33.6934
	minimum = 6
	maximum = 91
Network latency average = 33.6934
	minimum = 6
	maximum = 91
Slowest packet = 4021097
Flit latency average = 33.7446
	minimum = 6
	maximum = 91
Slowest flit = 4021097
Fragmentation average = 0
	minimum = 0
	maximum = 0
Injected packet rate average = 0.299799
	minimum = 0.243 (at node 3355)
	maximum = 0.354 (at node 3684)
Accepted packet rate average = 0.29985
	minimum = 0.245 (at node 1780)
	maximum = 0.351 (at node 2361)
Injected flit rate average = 0.299799
	minimum = 0.243 (at node 3355)
	maximum = 0.354 (at node 3684)
Accepted flit rate average= 0.29985
	minimum = 0.245 (at node 1780)
	maximum = 0.351 (at node 2361)
Injected packet length average = 1
Accepted packet length average = 1
Total in-flight flits = 41398 (41398 measured)
latency change    = 0.0035679
throughput change = 0.000550406
Class 0:
Packet latency average = 33.7652
	minimum = 6
	maximum = 91
Network latency average = 33.7652
	minimum = 6
	maximum = 91
Slowest packet = 4021097
Flit latency average = 33.7896
	minimum = 6
	maximum = 91
Slowest flit = 4021097
Fragmentation average = 0
	minimum = 0
	maximum = 0
Injected packet rate average = 0.299984
	minimum = 0.266 (at node 3143)
	maximum = 0.3345 (at node 2152)
Accepted packet rate average = 0.300007
	minimum = 0.2655 (at node 497)
	maximum = 0.3335 (at node 2593)
Injected flit rate average = 0.299984
	minimum = 0.266 (at node 3143)
	maximum = 0.3345 (at node 2152)
Accepted flit rate average= 0.300007
	minimum = 0.2655 (at node 497)
	maximum = 0.3335 (at node 2593)
Injected packet length average = 1
Accepted packet length average = 1
Total in-flight flits = 41416 (41416 measured)
latency change    = 0.00212712
throughput change = 0.00052611
Class 0:
Packet latency average = 33.7845
	minimum = 6
	maximum = 96
Network latency average = 33.7845
	minimum = 6
	maximum = 96
Slowest packet = 6301980
Flit latency average = 33.8005
	minimum = 6
	maximum = 96
Slowest flit = 6301980
Fragmentation average = 0
	minimum = 0
	maximum = 0
Injected packet rate average = 0.300054
	minimum = 0.268 (at node 3010)
	maximum = 0.328 (at node 580)
Accepted packet rate average = 0.300042
	minimum = 0.267 (at node 175)
	maximum = 0.329333 (at node 1640)
Injected flit rate average = 0.300054
	minimum = 0.268 (at node 3010)
	maximum = 0.328 (at node 580)
Accepted flit rate average= 0.300042
	minimum = 0.267 (at node 175)
	maximum = 0.329333 (at node 1640)
Injected packet length average = 1
Accepted packet length average = 1
Total in-flight flits = 41754 (41754 measured)
latency change    = 0.000569263
throughput change = 0.000114594
Draining all recorded packets ...
Draining remaining packets ...
Time taken is 6132 cycles
====== Overall Traffic Statistics ======
====== Traffic class 0 ======
Packet latency average = 33.8017 (1 samples)
	minimum = 6 (1 samples)
	maximum = 96 (1 samples)
Network latency average = 33.8017 (1 samples)
	minimum = 6 (1 samples)
	maximum = 96 (1 samples)
Flit latency average = 33.8183 (1 samples)
	minimum = 6 (1 samples)
	maximum = 96 (1 samples)
Fragmentation average = 0 (1 samples)
	minimum = 0 (1 samples)
	maximum = 0 (1 samples)
Injected packet rate average = 0.300054 (1 samples)
	minimum = 0.268 (1 samples)
	maximum = 0.328 (1 samples)
Accepted packet rate average = 0.300042 (1 samples)
	minimum = 0.267 (1 samples)
	maximum = 0.329333 (1 samples)
Injected flit rate average = 0.300054 (1 samples)
	minimum = 0.268 (1 samples)
	maximum = 0.328 (1 samples)
Accepted flit rate average = 0.300042 (1 samples)
	minimum = 0.267 (1 samples)
	maximum = 0.329333 (1 samples)
Injected packet size average = 1 (1 samples)
Accepted packet size average = 1 (1 samples)
Hops average = 6.68779 (1 samples)
Total run time 741.281
