BEGIN Configuration File: examples/fattree_config_0.50_1_bitcomp
// $Id: dragonflyconfig 3555 2011-05-16 23:37:55Z dub $

// Copyright (c) 2007-2015, Trustees of The Leland Stanford Junior University
// All rights reserved.
//
// Redistribution and use in source and binary forms, with or without
// modification, are permitted provided that the following conditions are met:
//
// Redistributions of source code must retain the above copyright notice, this
// list of conditions and the following disclaimer.
// Redistributions in binary form must reproduce the above copyright notice,
// this list of conditions and the following disclaimer in the documentation
// and/or other materials provided with the distribution.
//
// THIS SOFTWARE IS PROVIDED BY THE COPYRIGHT HOLDERS AND CONTRIBUTORS "AS IS"
// AND ANY EXPRESS OR IMPLIED WARRANTIES, INCLUDING, BUT NOT LIMITED TO, THE
// IMPLIED WARRANTIES OF MERCHANTABILITY AND FITNESS FOR A PARTICULAR PURPOSE
// ARE DISCLAIMED. IN NO EVENT SHALL THE COPYRIGHT OWNER OR CONTRIBUTORS BE
// LIABLE FOR ANY DIRECT, INDIRECT, INCIDENTAL, SPECIAL, EXEMPLARY, OR
// CONSEQUENTIAL DAMAGES (INCLUDING, BUT NOT LIMITED TO, PROCUREMENT OF
// SUBSTITUTE GOODS OR SERVICES; LOSS OF USE, DATA, OR PROFITS; OR BUSINESS
// INTERRUPTION) HOWEVER CAUSED AND ON ANY THEORY OF LIABILITY, WHETHER IN
// CONTRACT, STRICT LIABILITY, OR TORT (INCLUDING NEGLIGENCE OR OTHERWISE)
// ARISING IN ANY WAY OUT OF THE USE OF THIS SOFTWARE, EVEN IF ADVISED OF THE
// POSSIBILITY OF SUCH DAMAGE.


hold_switch_for_packet=1;

vc_buf_size = 16;


wait_for_tail_credit = 0;

//
// Router architecture
//
vc_allocator = separable_input_first; 
sw_allocator = separable_input_first;
alloc_iters  = 1;

credit_delay   = 2;
routing_delay  = 0;
vc_alloc_delay = 1;
sw_alloc_delay = 1;
st_final_delay = 1;

input_speedup     = 1;
output_speedup    = 1;
internal_speedup  = 1.0;


warmup_periods = 3;
sim_count          = 1;

sample_period  = 1000;  

routing_function = nca;
num_vcs     = 4;

priority = none;
traffic = bitcomp;


injection_rate = 0.50;
packet_size = 1;
injection_rate_uses_flits=1;

topology = fattree;

k  = 8;
n  = 4;
t = 1;

watch_file = watchfile.txt;
watch_out=-;
stats_out = examples/fattree_config_0.50_1_bitcomp.m;

END Configuration File: examples/fattree_config_0.50_1_bitcomp
Fat Tree
 k = 8 levels = 4
 each switch - total radix =  16
 # of switches = 2048
 # of channels = 24576
 # of nodes ( size of network ) = 4096
 tapering factor = 1
0 | node5 | Enqueuing flit 1 (packet 1) at time 0.
0 | node8 | Enqueuing flit 2 (packet 2) at time 0.
0 | node9 | Enqueuing flit 3 (packet 3) at time 0.
0 | node11 | Enqueuing flit 4 (packet 4) at time 0.
0 | node12 | Enqueuing flit 5 (packet 5) at time 0.
0 | node13 | Enqueuing flit 6 (packet 6) at time 0.
0 | node14 | Enqueuing flit 7 (packet 7) at time 0.
0 | node15 | Enqueuing flit 8 (packet 8) at time 0.
0 | node18 | Enqueuing flit 9 (packet 9) at time 0.
0 | node19 | Enqueuing flit 10 (packet 10) at time 0.
0 | traffic_manager | Finding output VC for flit 1:
0 | traffic_manager |   Selected output VC 0.
0 | node5 | Generating lookahead routing info for flit 1.
0 | node5 | Injecting flit 1 into subnet 0 at time 0 with priority 0.
0 | traffic_manager | Finding output VC for flit 2:
0 | traffic_manager |   Selected output VC 0.
0 | node8 | Generating lookahead routing info for flit 2.
0 | node8 | Injecting flit 2 into subnet 0 at time 0 with priority 0.
0 | traffic_manager | Finding output VC for flit 3:
0 | traffic_manager |   Selected output VC 0.
0 | node9 | Generating lookahead routing info for flit 3.
0 | node9 | Injecting flit 3 into subnet 0 at time 0 with priority 0.
0 | traffic_manager | Finding output VC for flit 4:
0 | traffic_manager |   Selected output VC 0.
0 | node11 | Generating lookahead routing info for flit 4.
0 | node11 | Injecting flit 4 into subnet 0 at time 0 with priority 0.
0 | traffic_manager | Finding output VC for flit 5:
0 | traffic_manager |   Selected output VC 0.
0 | node12 | Generating lookahead routing info for flit 5.
0 | node12 | Injecting flit 5 into subnet 0 at time 0 with priority 0.
0 | traffic_manager | Finding output VC for flit 6:
0 | traffic_manager |   Selected output VC 0.
0 | node13 | Generating lookahead routing info for flit 6.
0 | node13 | Injecting flit 6 into subnet 0 at time 0 with priority 0.
0 | traffic_manager | Finding output VC for flit 7:
0 | traffic_manager |   Selected output VC 0.
0 | node14 | Generating lookahead routing info for flit 7.
0 | node14 | Injecting flit 7 into subnet 0 at time 0 with priority 0.
0 | traffic_manager | Finding output VC for flit 8:
0 | traffic_manager |   Selected output VC 0.
0 | node15 | Generating lookahead routing info for flit 8.
0 | node15 | Injecting flit 8 into subnet 0 at time 0 with priority 0.
0 | traffic_manager | Finding output VC for flit 9:
0 | traffic_manager |   Selected output VC 0.
0 | node18 | Generating lookahead routing info for flit 9.
0 | node18 | Injecting flit 9 into subnet 0 at time 0 with priority 0.
0 | traffic_manager | Finding output VC for flit 10:
0 | traffic_manager |   Selected output VC 0.
0 | node19 | Generating lookahead routing info for flit 10.
0 | node19 | Injecting flit 10 into subnet 0 at time 0 with priority 0.
1 | network_0/network_0_fchan_ingress5 | Beginning channel traversal for flit 1 with delay 1.
1 | network_0/network_0_fchan_ingress8 | Beginning channel traversal for flit 2 with delay 1.
1 | network_0/network_0_fchan_ingress9 | Beginning channel traversal for flit 3 with delay 1.
1 | network_0/network_0_fchan_ingress11 | Beginning channel traversal for flit 4 with delay 1.
1 | network_0/network_0_fchan_ingress12 | Beginning channel traversal for flit 5 with delay 1.
1 | network_0/network_0_fchan_ingress13 | Beginning channel traversal for flit 6 with delay 1.
1 | network_0/network_0_fchan_ingress14 | Beginning channel traversal for flit 7 with delay 1.
1 | network_0/network_0_fchan_ingress15 | Beginning channel traversal for flit 8 with delay 1.
1 | network_0/network_0_fchan_ingress18 | Beginning channel traversal for flit 9 with delay 1.
1 | network_0/network_0_fchan_ingress19 | Beginning channel traversal for flit 10 with delay 1.
1 | network_0/network_0_fchan_ingress5 | Completed channel traversal for flit 1.
1 | network_0/network_0_fchan_ingress8 | Completed channel traversal for flit 2.
1 | network_0/network_0_fchan_ingress9 | Completed channel traversal for flit 3.
1 | network_0/network_0_fchan_ingress11 | Completed channel traversal for flit 4.
1 | network_0/network_0_fchan_ingress12 | Completed channel traversal for flit 5.
1 | network_0/network_0_fchan_ingress13 | Completed channel traversal for flit 6.
1 | network_0/network_0_fchan_ingress14 | Completed channel traversal for flit 7.
1 | network_0/network_0_fchan_ingress15 | Completed channel traversal for flit 8.
1 | network_0/network_0_fchan_ingress18 | Completed channel traversal for flit 9.
1 | network_0/network_0_fchan_ingress19 | Completed channel traversal for flit 10.
2 | network_0/router_level3_0 | Received flit 1 from channel at input 5.
2 | network_0/router_level3_1 | Received flit 2 from channel at input 0.
2 | network_0/router_level3_1 | Received flit 3 from channel at input 1.
2 | network_0/router_level3_1 | Received flit 4 from channel at input 3.
2 | network_0/router_level3_1 | Received flit 5 from channel at input 4.
2 | network_0/router_level3_1 | Received flit 6 from channel at input 5.
2 | network_0/router_level3_1 | Received flit 7 from channel at input 6.
2 | network_0/router_level3_1 | Received flit 8 from channel at input 7.
2 | network_0/router_level3_2 | Received flit 9 from channel at input 2.
2 | network_0/router_level3_2 | Received flit 10 from channel at input 3.
2 | network_0/router_level3_0 | Adding flit 1 to VC 0 at input 5 (state: idle, empty).
2 | network_0/router_level3_0 | Using precomputed lookahead routing information for VC 0 at input 5 (front: 1).
2 | network_0/router_level3_0/buf_5/vc_0 | Changing state from idle to vc_alloc.
2 | network_0/router_level3_0 | Beginning VC allocation for VC 0 at input 5 (front: 1).
2 | network_0/router_level3_0 |   Requesting VC 0 at output 10 (in_pri: 0, out_pri: 0).
2 | network_0/router_level3_0 |   Requesting VC 1 at output 10 (in_pri: 0, out_pri: 0).
2 | network_0/router_level3_0 |   Requesting VC 2 at output 10 (in_pri: 0, out_pri: 0).
2 | network_0/router_level3_0 |   Requesting VC 3 at output 10 (in_pri: 0, out_pri: 0).
2 | network_0/router_level3_0/vc_allocator | Input requests = [ 16 -> [ 60@0 61@0 62@0 63@0 ]  20 -> [ 40@0 41@0 42@0 43@0 ]  ], output requests = [ 40 -> [ 20@0 ]  41 -> [ 20@0 ]  42 -> [ 20@0 ]  43 -> [ 20@0 ]  60 -> [ 16@0 ]  61 -> [ 16@0 ]  62 -> [ 16@0 ]  63 -> [ 16@0 ]  ].
2 | network_0/router_level3_0/vc_allocator | Input grants = [ 16 -> 60  20 -> 40  ], output grants = [ 40 -> 20  60 -> 16  ].
2 | network_0/router_level3_0 | Assigning VC 0 at output 10 to VC 0 at input 5.
2 | network_0/router_level3_0 | Completed VC allocation for VC 0 at input 5 (front: 1).
2 | network_0/router_level3_0 |   Acquiring assigned VC 0 at output 10.
2 | network_0/router_level3_0/buf_5/vc_0 | Changing state from vc_alloc to active.
2 | network_0/router_level3_1 | Adding flit 2 to VC 0 at input 0 (state: idle, empty).
2 | network_0/router_level3_1 | Using precomputed lookahead routing information for VC 0 at input 0 (front: 2).
2 | network_0/router_level3_1/buf_0/vc_0 | Changing state from idle to vc_alloc.
2 | network_0/router_level3_1 | Adding flit 3 to VC 0 at input 1 (state: idle, empty).
2 | network_0/router_level3_1 | Using precomputed lookahead routing information for VC 0 at input 1 (front: 3).
2 | network_0/router_level3_1/buf_1/vc_0 | Changing state from idle to vc_alloc.
2 | network_0/router_level3_1 | Adding flit 4 to VC 0 at input 3 (state: idle, empty).
2 | network_0/router_level3_1 | Using precomputed lookahead routing information for VC 0 at input 3 (front: 4).
2 | network_0/router_level3_1/buf_3/vc_0 | Changing state from idle to vc_alloc.
2 | network_0/router_level3_1 | Adding flit 5 to VC 0 at input 4 (state: idle, empty).
2 | network_0/router_level3_1 | Using precomputed lookahead routing information for VC 0 at input 4 (front: 5).
2 | network_0/router_level3_1/buf_4/vc_0 | Changing state from idle to vc_alloc.
2 | network_0/router_level3_1 | Adding flit 6 to VC 0 at input 5 (state: idle, empty).
2 | network_0/router_level3_1 | Using precomputed lookahead routing information for VC 0 at input 5 (front: 6).
2 | network_0/router_level3_1/buf_5/vc_0 | Changing state from idle to vc_alloc.
2 | network_0/router_level3_1 | Adding flit 7 to VC 0 at input 6 (state: idle, empty).
2 | network_0/router_level3_1 | Using precomputed lookahead routing information for VC 0 at input 6 (front: 7).
2 | network_0/router_level3_1/buf_6/vc_0 | Changing state from idle to vc_alloc.
2 | network_0/router_level3_1 | Adding flit 8 to VC 0 at input 7 (state: idle, empty).
2 | network_0/router_level3_1 | Using precomputed lookahead routing information for VC 0 at input 7 (front: 8).
2 | network_0/router_level3_1/buf_7/vc_0 | Changing state from idle to vc_alloc.
2 | network_0/router_level3_1 | Beginning VC allocation for VC 0 at input 0 (front: 2).
2 | network_0/router_level3_1 |   Requesting VC 0 at output 15 (in_pri: 0, out_pri: 0).
2 | network_0/router_level3_1 |   Requesting VC 1 at output 15 (in_pri: 0, out_pri: 0).
2 | network_0/router_level3_1 |   Requesting VC 2 at output 15 (in_pri: 0, out_pri: 0).
2 | network_0/router_level3_1 |   Requesting VC 3 at output 15 (in_pri: 0, out_pri: 0).
2 | network_0/router_level3_1 | Beginning VC allocation for VC 0 at input 1 (front: 3).
2 | network_0/router_level3_1 |   Requesting VC 0 at output 13 (in_pri: 0, out_pri: 0).
2 | network_0/router_level3_1 |   Requesting VC 1 at output 13 (in_pri: 0, out_pri: 0).
2 | network_0/router_level3_1 |   Requesting VC 2 at output 13 (in_pri: 0, out_pri: 0).
2 | network_0/router_level3_1 |   Requesting VC 3 at output 13 (in_pri: 0, out_pri: 0).
2 | network_0/router_level3_1 | Beginning VC allocation for VC 0 at input 3 (front: 4).
2 | network_0/router_level3_1 |   Requesting VC 0 at output 14 (in_pri: 0, out_pri: 0).
2 | network_0/router_level3_1 |   Requesting VC 1 at output 14 (in_pri: 0, out_pri: 0).
2 | network_0/router_level3_1 |   Requesting VC 2 at output 14 (in_pri: 0, out_pri: 0).
2 | network_0/router_level3_1 |   Requesting VC 3 at output 14 (in_pri: 0, out_pri: 0).
2 | network_0/router_level3_1 | Beginning VC allocation for VC 0 at input 4 (front: 5).
2 | network_0/router_level3_1 |   Requesting VC 0 at output 9 (in_pri: 0, out_pri: 0).
2 | network_0/router_level3_1 |   Requesting VC 1 at output 9 (in_pri: 0, out_pri: 0).
2 | network_0/router_level3_1 |   Requesting VC 2 at output 9 (in_pri: 0, out_pri: 0).
2 | network_0/router_level3_1 |   Requesting VC 3 at output 9 (in_pri: 0, out_pri: 0).
2 | network_0/router_level3_1 | Beginning VC allocation for VC 0 at input 5 (front: 6).
2 | network_0/router_level3_1 |   Requesting VC 0 at output 8 (in_pri: 0, out_pri: 0).
2 | network_0/router_level3_1 |   Requesting VC 1 at output 8 (in_pri: 0, out_pri: 0).
2 | network_0/router_level3_1 |   Requesting VC 2 at output 8 (in_pri: 0, out_pri: 0).
2 | network_0/router_level3_1 |   Requesting VC 3 at output 8 (in_pri: 0, out_pri: 0).
2 | network_0/router_level3_1 | Beginning VC allocation for VC 0 at input 6 (front: 7).
2 | network_0/router_level3_1 |   Requesting VC 0 at output 12 (in_pri: 0, out_pri: 0).
2 | network_0/router_level3_1 |   Requesting VC 1 at output 12 (in_pri: 0, out_pri: 0).
2 | network_0/router_level3_1 |   Requesting VC 2 at output 12 (in_pri: 0, out_pri: 0).
2 | network_0/router_level3_1 |   Requesting VC 3 at output 12 (in_pri: 0, out_pri: 0).
2 | network_0/router_level3_1 | Beginning VC allocation for VC 0 at input 7 (front: 8).
2 | network_0/router_level3_1 |   Requesting VC 0 at output 13 (in_pri: 0, out_pri: 0).
2 | network_0/router_level3_1 |   Requesting VC 1 at output 13 (in_pri: 0, out_pri: 0).
2 | network_0/router_level3_1 |   Requesting VC 2 at output 13 (in_pri: 0, out_pri: 0).
2 | network_0/router_level3_1 |   Requesting VC 3 at output 13 (in_pri: 0, out_pri: 0).
2 | network_0/router_level3_1/vc_allocator | Input requests = [ 0 -> [ 60@0 61@0 62@0 63@0 ]  4 -> [ 52@0 53@0 54@0 55@0 ]  12 -> [ 56@0 57@0 58@0 59@0 ]  16 -> [ 36@0 37@0 38@0 39@0 ]  20 -> [ 32@0 33@0 34@0 35@0 ]  24 -> [ 48@0 49@0 50@0 51@0 ]  28 -> [ 52@0 53@0 54@0 55@0 ]  ], output requests = [ 32 -> [ 20@0 ]  33 -> [ 20@0 ]  34 -> [ 20@0 ]  35 -> [ 20@0 ]  36 -> [ 16@0 ]  37 -> [ 16@0 ]  38 -> [ 16@0 ]  39 -> [ 16@0 ]  48 -> [ 24@0 ]  49 -> [ 24@0 ]  50 -> [ 24@0 ]  51 -> [ 24@0 ]  52 -> [ 4@0 28@0 ]  53 -> [ 4@0 28@0 ]  54 -> [ 4@0 28@0 ]  55 -> [ 4@0 28@0 ]  56 -> [ 12@0 ]  57 -> [ 12@0 ]  58 -> [ 12@0 ]  59 -> [ 12@0 ]  60 -> [ 0@0 ]  61 -> [ 0@0 ]  62 -> [ 0@0 ]  63 -> [ 0@0 ]  ].
2 | network_0/router_level3_1/vc_allocator | Input grants = [ 0 -> 60  4 -> 52  12 -> 56  16 -> 36  20 -> 32  24 -> 48  ], output grants = [ 32 -> 20  36 -> 16  48 -> 24  52 -> 4  56 -> 12  60 -> 0  ].
2 | network_0/router_level3_1 | Assigning VC 0 at output 15 to VC 0 at input 0.
2 | network_0/router_level3_1 | Assigning VC 0 at output 13 to VC 0 at input 1.
2 | network_0/router_level3_1 | Assigning VC 0 at output 14 to VC 0 at input 3.
2 | network_0/router_level3_1 | Assigning VC 0 at output 9 to VC 0 at input 4.
2 | network_0/router_level3_1 | Assigning VC 0 at output 8 to VC 0 at input 5.
2 | network_0/router_level3_1 | Assigning VC 0 at output 12 to VC 0 at input 6.
2 | network_0/router_level3_1 | VC allocation failed for VC 0 at input 7.
2 | network_0/router_level3_1 | Completed VC allocation for VC 0 at input 0 (front: 2).
2 | network_0/router_level3_1 |   Acquiring assigned VC 0 at output 15.
2 | network_0/router_level3_1/buf_0/vc_0 | Changing state from vc_alloc to active.
2 | network_0/router_level3_1 | Completed VC allocation for VC 0 at input 1 (front: 3).
2 | network_0/router_level3_1 |   Acquiring assigned VC 0 at output 13.
2 | network_0/router_level3_1/buf_1/vc_0 | Changing state from vc_alloc to active.
2 | network_0/router_level3_1 | Completed VC allocation for VC 0 at input 3 (front: 4).
2 | network_0/router_level3_1 |   Acquiring assigned VC 0 at output 14.
2 | network_0/router_level3_1/buf_3/vc_0 | Changing state from vc_alloc to active.
2 | network_0/router_level3_1 | Completed VC allocation for VC 0 at input 4 (front: 5).
2 | network_0/router_level3_1 |   Acquiring assigned VC 0 at output 9.
2 | network_0/router_level3_1/buf_4/vc_0 | Changing state from vc_alloc to active.
2 | network_0/router_level3_1 | Completed VC allocation for VC 0 at input 5 (front: 6).
2 | network_0/router_level3_1 |   Acquiring assigned VC 0 at output 8.
2 | network_0/router_level3_1/buf_5/vc_0 | Changing state from vc_alloc to active.
2 | network_0/router_level3_1 | Completed VC allocation for VC 0 at input 6 (front: 7).
2 | network_0/router_level3_1 |   Acquiring assigned VC 0 at output 12.
2 | network_0/router_level3_1/buf_6/vc_0 | Changing state from vc_alloc to active.
2 | network_0/router_level3_1 | Completed VC allocation for VC 0 at input 7 (front: 8).
2 | network_0/router_level3_1 |   No output VC allocated.
2 | network_0/router_level3_2 | Adding flit 9 to VC 0 at input 2 (state: idle, empty).
2 | network_0/router_level3_2 | Using precomputed lookahead routing information for VC 0 at input 2 (front: 9).
2 | network_0/router_level3_2/buf_2/vc_0 | Changing state from idle to vc_alloc.
2 | network_0/router_level3_2 | Adding flit 10 to VC 0 at input 3 (state: idle, empty).
2 | network_0/router_level3_2 | Using precomputed lookahead routing information for VC 0 at input 3 (front: 10).
2 | network_0/router_level3_2/buf_3/vc_0 | Changing state from idle to vc_alloc.
2 | network_0/router_level3_2 | Beginning VC allocation for VC 0 at input 2 (front: 9).
2 | network_0/router_level3_2 |   Requesting VC 0 at output 11 (in_pri: 0, out_pri: 0).
2 | network_0/router_level3_2 |   Requesting VC 1 at output 11 (in_pri: 0, out_pri: 0).
2 | network_0/router_level3_2 |   Requesting VC 2 at output 11 (in_pri: 0, out_pri: 0).
2 | network_0/router_level3_2 |   Requesting VC 3 at output 11 (in_pri: 0, out_pri: 0).
2 | network_0/router_level3_2 | Beginning VC allocation for VC 0 at input 3 (front: 10).
2 | network_0/router_level3_2 |   Requesting VC 0 at output 11 (in_pri: 0, out_pri: 0).
2 | network_0/router_level3_2 |   Requesting VC 1 at output 11 (in_pri: 0, out_pri: 0).
2 | network_0/router_level3_2 |   Requesting VC 2 at output 11 (in_pri: 0, out_pri: 0).
2 | network_0/router_level3_2 |   Requesting VC 3 at output 11 (in_pri: 0, out_pri: 0).
2 | network_0/router_level3_2/vc_allocator | Input requests = [ 8 -> [ 44@0 45@0 46@0 47@0 ]  12 -> [ 44@0 45@0 46@0 47@0 ]  16 -> [ 48@0 49@0 50@0 51@0 ]  20 -> [ 40@0 41@0 42@0 43@0 ]  24 -> [ 52@0 53@0 54@0 55@0 ]  28 -> [ 48@0 49@0 50@0 51@0 ]  ], output requests = [ 40 -> [ 20@0 ]  41 -> [ 20@0 ]  42 -> [ 20@0 ]  43 -> [ 20@0 ]  44 -> [ 8@0 12@0 ]  45 -> [ 8@0 12@0 ]  46 -> [ 8@0 12@0 ]  47 -> [ 8@0 12@0 ]  48 -> [ 16@0 28@0 ]  49 -> [ 16@0 28@0 ]  50 -> [ 16@0 28@0 ]  51 -> [ 16@0 28@0 ]  52 -> [ 24@0 ]  53 -> [ 24@0 ]  54 -> [ 24@0 ]  55 -> [ 24@0 ]  ].
2 | network_0/router_level3_2/vc_allocator | Input grants = [ 8 -> 44  16 -> 48  20 -> 40  24 -> 52  ], output grants = [ 40 -> 20  44 -> 8  48 -> 16  52 -> 24  ].
2 | network_0/router_level3_2 | Assigning VC 0 at output 11 to VC 0 at input 2.
2 | network_0/router_level3_2 | VC allocation failed for VC 0 at input 3.
2 | network_0/router_level3_2 | Completed VC allocation for VC 0 at input 2 (front: 9).
2 | network_0/router_level3_2 |   Acquiring assigned VC 0 at output 11.
2 | network_0/router_level3_2/buf_2/vc_0 | Changing state from vc_alloc to active.
2 | network_0/router_level3_2 | Completed VC allocation for VC 0 at input 3 (front: 10).
2 | network_0/router_level3_2 |   No output VC allocated.
3 | network_0/router_level3_0 | Beginning switch allocation for VC 0 at input 5 (front: 1).
3 | network_0/router_level3_0 |   Requesting output 10.0 (non-spec, pri: 0).
3 | network_0/router_level3_0/sw_allocator | Input requests = [ 4 -> [ 15@0 ]  5 -> [ 10@0 ]  ], output requests = [ 10 -> [ 5@0 ]  15 -> [ 4@0 ]  ].
3 | network_0/router_level3_0/sw_allocator | Input grants = [ 4 -> 15  5 -> 10  ], output grants = [ 10 -> 5  15 -> 4  ].
3 | network_0/router_level3_0 | Assigning output 10.0 to VC 0 at input 5.0.
3 | network_0/router_level3_0 | Completed switch allocation for VC 0 at input 5 (front: 1).
3 | network_0/router_level3_0 |   Scheduling switch connection from input 5.0 to output 10.0.
3 | network_0/router_level3_0 | Updating lookahead routing information for flit 1.
3 | network_0/router_level3_1 | Beginning VC allocation for VC 0 at input 7 (front: 8).
3 | network_0/router_level3_1 |   VC 0 at output 13 is in use by VC 0 at input 1 (front flit: 3).
3 | network_0/router_level3_1 |   Requesting VC 1 at output 13 (in_pri: 0, out_pri: 0).
3 | network_0/router_level3_1 |   Requesting VC 2 at output 13 (in_pri: 0, out_pri: 0).
3 | network_0/router_level3_1 |   Requesting VC 3 at output 13 (in_pri: 0, out_pri: 0).
3 | network_0/router_level3_1/vc_allocator | Input requests = [ 5 -> [ 40@0 41@0 42@0 43@0 ]  17 -> [ 49@0 50@0 51@0 ]  21 -> [ 37@0 38@0 39@0 ]  25 -> [ 53@0 54@0 55@0 ]  28 -> [ 53@0 54@0 55@0 ]  ], output requests = [ 37 -> [ 21@0 ]  38 -> [ 21@0 ]  39 -> [ 21@0 ]  40 -> [ 5@0 ]  41 -> [ 5@0 ]  42 -> [ 5@0 ]  43 -> [ 5@0 ]  49 -> [ 17@0 ]  50 -> [ 17@0 ]  51 -> [ 17@0 ]  53 -> [ 25@0 28@0 ]  54 -> [ 25@0 28@0 ]  55 -> [ 25@0 28@0 ]  ].
3 | network_0/router_level3_1/vc_allocator | Input grants = [ 5 -> 40  17 -> 49  21 -> 37  25 -> 53  ], output grants = [ 37 -> 21  40 -> 5  49 -> 17  53 -> 25  ].
3 | network_0/router_level3_1 | VC allocation failed for VC 0 at input 7.
3 | network_0/router_level3_1 | Beginning switch allocation for VC 0 at input 0 (front: 2).
3 | network_0/router_level3_1 |   Requesting output 15.0 (non-spec, pri: 0).
3 | network_0/router_level3_1 | Beginning switch allocation for VC 0 at input 1 (front: 3).
3 | network_0/router_level3_1 |   Requesting output 13.0 (non-spec, pri: 0).
3 | network_0/router_level3_1 | Beginning switch allocation for VC 0 at input 3 (front: 4).
3 | network_0/router_level3_1 |   Requesting output 14.0 (non-spec, pri: 0).
3 | network_0/router_level3_1 | Beginning switch allocation for VC 0 at input 4 (front: 5).
3 | network_0/router_level3_1 |   Requesting output 9.0 (non-spec, pri: 0).
3 | network_0/router_level3_1 | Beginning switch allocation for VC 0 at input 5 (front: 6).
3 | network_0/router_level3_1 |   Requesting output 8.0 (non-spec, pri: 0).
3 | network_0/router_level3_1 | Beginning switch allocation for VC 0 at input 6 (front: 7).
3 | network_0/router_level3_1 |   Requesting output 12.0 (non-spec, pri: 0).
3 | network_0/router_level3_1/sw_allocator | Input requests = [ 0 -> [ 15@0 ]  1 -> [ 13@0 ]  3 -> [ 14@0 ]  4 -> [ 9@0 ]  5 -> [ 8@0 ]  6 -> [ 12@0 ]  ], output requests = [ 8 -> [ 5@0 ]  9 -> [ 4@0 ]  12 -> [ 6@0 ]  13 -> [ 1@0 ]  14 -> [ 3@0 ]  15 -> [ 0@0 ]  ].
3 | network_0/router_level3_1/sw_allocator | Input grants = [ 0 -> 15  1 -> 13  3 -> 14  4 -> 9  5 -> 8  6 -> 12  ], output grants = [ 8 -> 5  9 -> 4  12 -> 6  13 -> 1  14 -> 3  15 -> 0  ].
3 | network_0/router_level3_1 | Assigning output 15.0 to VC 0 at input 0.0.
3 | network_0/router_level3_1 | Assigning output 13.0 to VC 0 at input 1.0.
3 | network_0/router_level3_1 | Assigning output 14.0 to VC 0 at input 3.0.
3 | network_0/router_level3_1 | Assigning output 9.0 to VC 0 at input 4.0.
3 | network_0/router_level3_1 | Assigning output 8.0 to VC 0 at input 5.0.
3 | network_0/router_level3_1 | Assigning output 12.0 to VC 0 at input 6.0.
3 | network_0/router_level3_1 | Completed VC allocation for VC 0 at input 7 (front: 8).
3 | network_0/router_level3_1 |   No output VC allocated.
3 | network_0/router_level3_1 | Completed switch allocation for VC 0 at input 0 (front: 2).
3 | network_0/router_level3_1 |   Scheduling switch connection from input 0.0 to output 15.0.
3 | network_0/router_level3_1 | Updating lookahead routing information for flit 2.
3 | network_0/router_level3_1 | Completed switch allocation for VC 0 at input 1 (front: 3).
3 | network_0/router_level3_1 |   Scheduling switch connection from input 1.0 to output 13.0.
3 | network_0/router_level3_1 | Updating lookahead routing information for flit 3.
3 | network_0/router_level3_1 | Completed switch allocation for VC 0 at input 3 (front: 4).
3 | network_0/router_level3_1 |   Scheduling switch connection from input 3.0 to output 14.0.
3 | network_0/router_level3_1 | Updating lookahead routing information for flit 4.
3 | network_0/router_level3_1 | Completed switch allocation for VC 0 at input 4 (front: 5).
3 | network_0/router_level3_1 |   Scheduling switch connection from input 4.0 to output 9.0.
3 | network_0/router_level3_1 | Updating lookahead routing information for flit 5.
3 | network_0/router_level3_1 | Completed switch allocation for VC 0 at input 5 (front: 6).
3 | network_0/router_level3_1 |   Scheduling switch connection from input 5.0 to output 8.0.
3 | network_0/router_level3_1 | Updating lookahead routing information for flit 6.
3 | network_0/router_level3_1 | Completed switch allocation for VC 0 at input 6 (front: 7).
3 | network_0/router_level3_1 |   Scheduling switch connection from input 6.0 to output 12.0.
3 | network_0/router_level3_1 | Updating lookahead routing information for flit 7.
3 | network_0/router_level3_2 | Beginning VC allocation for VC 0 at input 3 (front: 10).
3 | network_0/router_level3_2 |   VC 0 at output 11 is in use by VC 0 at input 2 (front flit: 9).
3 | network_0/router_level3_2 |   Requesting VC 1 at output 11 (in_pri: 0, out_pri: 0).
3 | network_0/router_level3_2 |   Requesting VC 2 at output 11 (in_pri: 0, out_pri: 0).
3 | network_0/router_level3_2 |   Requesting VC 3 at output 11 (in_pri: 0, out_pri: 0).
3 | network_0/router_level3_2/vc_allocator | Input requests = [ 0 -> [ 41@0 42@0 43@0 ]  9 -> [ 60@0 61@0 62@0 63@0 ]  12 -> [ 45@0 46@0 47@0 ]  25 -> [ 56@0 57@0 58@0 59@0 ]  28 -> [ 49@0 50@0 51@0 ]  ], output requests = [ 41 -> [ 0@0 ]  42 -> [ 0@0 ]  43 -> [ 0@0 ]  45 -> [ 12@0 ]  46 -> [ 12@0 ]  47 -> [ 12@0 ]  49 -> [ 28@0 ]  50 -> [ 28@0 ]  51 -> [ 28@0 ]  56 -> [ 25@0 ]  57 -> [ 25@0 ]  58 -> [ 25@0 ]  59 -> [ 25@0 ]  60 -> [ 9@0 ]  61 -> [ 9@0 ]  62 -> [ 9@0 ]  63 -> [ 9@0 ]  ].
3 | network_0/router_level3_2/vc_allocator | Input grants = [ 0 -> 41  9 -> 60  12 -> 45  25 -> 56  28 -> 49  ], output grants = [ 41 -> 0  45 -> 12  49 -> 28  56 -> 25  60 -> 9  ].
3 | network_0/router_level3_2 | Assigning VC 1 at output 11 to VC 0 at input 3.
3 | network_0/router_level3_2 | Beginning switch allocation for VC 0 at input 2 (front: 9).
3 | network_0/router_level3_2 |   Requesting output 11.0 (non-spec, pri: 0).
3 | network_0/router_level3_2/sw_allocator | Input requests = [ 2 -> [ 11@0 ]  4 -> [ 12@0 ]  5 -> [ 10@0 ]  6 -> [ 13@0 ]  ], output requests = [ 10 -> [ 5@0 ]  11 -> [ 2@0 ]  12 -> [ 4@0 ]  13 -> [ 6@0 ]  ].
3 | network_0/router_level3_2/sw_allocator | Input grants = [ 2 -> 11  4 -> 12  5 -> 10  6 -> 13  ], output grants = [ 10 -> 5  11 -> 2  12 -> 4  13 -> 6  ].
3 | network_0/router_level3_2 | Assigning output 11.0 to VC 0 at input 2.0.
3 | network_0/router_level3_2 | Completed VC allocation for VC 0 at input 3 (front: 10).
3 | network_0/router_level3_2 |   Acquiring assigned VC 1 at output 11.
3 | network_0/router_level3_2/buf_3/vc_0 | Changing state from vc_alloc to active.
3 | network_0/router_level3_2 | Completed switch allocation for VC 0 at input 2 (front: 9).
3 | network_0/router_level3_2 |   Scheduling switch connection from input 2.0 to output 11.0.
3 | network_0/router_level3_2 | Updating lookahead routing information for flit 9.
4 | network_0/router_level3_0 | Beginning crossbar traversal for flit 1 from input 5.0 to output 10.0.
4 | network_0/router_level3_0 | Completed crossbar traversal for flit 1 from input 5.0 to output 10.0.
4 | network_0/router_level3_0 | Buffering flit 1 at output 10.
4 | network_0/router_level3_1 | Beginning VC allocation for VC 0 at input 7 (front: 8).
4 | network_0/router_level3_1 |   Requesting VC 0 at output 13 (in_pri: 0, out_pri: 0).
4 | network_0/router_level3_1 |   VC 1 at output 13 is in use by VC 1 at input 6 (front flit: 2000).
4 | network_0/router_level3_1 |   Requesting VC 2 at output 13 (in_pri: 0, out_pri: 0).
4 | network_0/router_level3_1 |   Requesting VC 3 at output 13 (in_pri: 0, out_pri: 0).
4 | network_0/router_level3_1/vc_allocator | Input requests = [ 1 -> [ 36@0 38@0 39@0 ]  6 -> [ 36@0 38@0 39@0 ]  22 -> [ 32@0 33@0 34@0 35@0 ]  28 -> [ 52@0 54@0 55@0 ]  ], output requests = [ 32 -> [ 22@0 ]  33 -> [ 22@0 ]  34 -> [ 22@0 ]  35 -> [ 22@0 ]  36 -> [ 1@0 6@0 ]  38 -> [ 1@0 6@0 ]  39 -> [ 1@0 6@0 ]  52 -> [ 28@0 ]  54 -> [ 28@0 ]  55 -> [ 28@0 ]  ].
4 | network_0/router_level3_1/vc_allocator | Input grants = [ 1 -> 36  22 -> 32  28 -> 52  ], output grants = [ 32 -> 22  36 -> 1  52 -> 28  ].
4 | network_0/router_level3_1 | Assigning VC 0 at output 13 to VC 0 at input 7.
4 | network_0/router_level3_1 | Beginning crossbar traversal for flit 2 from input 0.0 to output 15.0.
4 | network_0/router_level3_1 | Beginning crossbar traversal for flit 3 from input 1.0 to output 13.0.
4 | network_0/router_level3_1 | Beginning crossbar traversal for flit 4 from input 3.0 to output 14.0.
4 | network_0/router_level3_1 | Beginning crossbar traversal for flit 5 from input 4.0 to output 9.0.
4 | network_0/router_level3_1 | Beginning crossbar traversal for flit 6 from input 5.0 to output 8.0.
4 | network_0/router_level3_1 | Beginning crossbar traversal for flit 7 from input 6.0 to output 12.0.
4 | network_0/router_level3_1 | Completed VC allocation for VC 0 at input 7 (front: 8).
4 | network_0/router_level3_1 |   Acquiring assigned VC 0 at output 13.
4 | network_0/router_level3_1/buf_7/vc_0 | Changing state from vc_alloc to active.
4 | network_0/router_level3_1 | Completed crossbar traversal for flit 2 from input 0.0 to output 15.0.
4 | network_0/router_level3_1 | Buffering flit 2 at output 15.
4 | network_0/router_level3_1 | Completed crossbar traversal for flit 3 from input 1.0 to output 13.0.
4 | network_0/router_level3_1 | Buffering flit 3 at output 13.
4 | network_0/router_level3_1 | Completed crossbar traversal for flit 4 from input 3.0 to output 14.0.
4 | network_0/router_level3_1 | Buffering flit 4 at output 14.
4 | network_0/router_level3_1 | Completed crossbar traversal for flit 5 from input 4.0 to output 9.0.
4 | network_0/router_level3_1 | Buffering flit 5 at output 9.
4 | network_0/router_level3_1 | Completed crossbar traversal for flit 6 from input 5.0 to output 8.0.
4 | network_0/router_level3_1 | Buffering flit 6 at output 8.
4 | network_0/router_level3_1 | Completed crossbar traversal for flit 7 from input 6.0 to output 12.0.
4 | network_0/router_level3_1 | Buffering flit 7 at output 12.
4 | network_0/router_level3_2 | Beginning switch allocation for VC 0 at input 3 (front: 10).
4 | network_0/router_level3_2 |   Requesting output 11.0 (non-spec, pri: 0).
4 | network_0/router_level3_2/sw_allocator | Input requests = [ 0 -> [ 10@0 ]  2 -> [ 15@0 ]  3 -> [ 11@0 ]  6 -> [ 14@0 ]  7 -> [ 12@0 ]  ], output requests = [ 10 -> [ 0@0 ]  11 -> [ 3@0 ]  12 -> [ 7@0 ]  14 -> [ 6@0 ]  15 -> [ 2@0 ]  ].
4 | network_0/router_level3_2/sw_allocator | Input grants = [ 0 -> 10  2 -> 15  3 -> 11  6 -> 14  7 -> 12  ], output grants = [ 10 -> 0  11 -> 3  12 -> 7  14 -> 6  15 -> 2  ].
4 | network_0/router_level3_2 | Assigning output 11.0 to VC 0 at input 3.0.
4 | network_0/router_level3_2 | Beginning crossbar traversal for flit 9 from input 2.0 to output 11.0.
4 | network_0/router_level3_2 | Completed switch allocation for VC 0 at input 3 (front: 10).
4 | network_0/router_level3_2 |   Scheduling switch connection from input 3.0 to output 11.0.
4 | network_0/router_level3_2 | Updating lookahead routing information for flit 10.
4 | network_0/router_level3_2 | Completed crossbar traversal for flit 9 from input 2.0 to output 11.0.
4 | network_0/router_level3_2 | Buffering flit 9 at output 11.
4 | network_0/router_level3_0 | Sending flit 1 to channel at output 10.
4 | network_0/router_level3_1 | Sending flit 6 to channel at output 8.
4 | network_0/router_level3_1 | Sending flit 5 to channel at output 9.
4 | network_0/router_level3_1 | Sending flit 7 to channel at output 12.
4 | network_0/router_level3_1 | Sending flit 3 to channel at output 13.
4 | network_0/router_level3_1 | Sending flit 4 to channel at output 14.
4 | network_0/router_level3_1 | Sending flit 2 to channel at output 15.
4 | network_0/router_level3_2 | Sending flit 9 to channel at output 11.
5 | network_0/network_0_fchan_20482 | Beginning channel traversal for flit 1 with delay 1.
5 | network_0/network_0_fchan_20488 | Beginning channel traversal for flit 6 with delay 1.
5 | network_0/network_0_fchan_20489 | Beginning channel traversal for flit 5 with delay 1.
5 | network_0/network_0_fchan_20492 | Beginning channel traversal for flit 7 with delay 1.
5 | network_0/network_0_fchan_20493 | Beginning channel traversal for flit 3 with delay 1.
5 | network_0/network_0_fchan_20494 | Beginning channel traversal for flit 4 with delay 1.
5 | network_0/network_0_fchan_20495 | Beginning channel traversal for flit 2 with delay 1.
5 | network_0/network_0_fchan_20499 | Beginning channel traversal for flit 9 with delay 1.
5 | network_0/router_level3_1 | Beginning switch allocation for VC 0 at input 7 (front: 8).
5 | network_0/router_level3_1 |   Requesting output 13.0 (non-spec, pri: 0).
5 | network_0/router_level3_1/sw_allocator | Input requests = [ 0 -> [ 9@0 ]  5 -> [ 8@0 ]  7 -> [ 13@0 ]  ], output requests = [ 8 -> [ 5@0 ]  9 -> [ 0@0 ]  13 -> [ 7@0 ]  ].
5 | network_0/router_level3_1/sw_allocator | Input grants = [ 0 -> 9  5 -> 8  7 -> 13  ], output grants = [ 8 -> 5  9 -> 0  13 -> 7  ].
5 | network_0/router_level3_1 | Assigning output 13.0 to VC 0 at input 7.0.
5 | network_0/router_level3_1 | Completed switch allocation for VC 0 at input 7 (front: 8).
5 | network_0/router_level3_1 |   Scheduling switch connection from input 7.0 to output 13.0.
5 | network_0/router_level3_1 | Updating lookahead routing information for flit 8.
5 | network_0/router_level3_2 | Beginning crossbar traversal for flit 10 from input 3.0 to output 11.0.
5 | network_0/router_level3_2 | Completed crossbar traversal for flit 10 from input 3.0 to output 11.0.
5 | network_0/router_level3_2 | Buffering flit 10 at output 11.
5 | network_0/network_0_fchan_20482 | Completed channel traversal for flit 1.
5 | network_0/network_0_fchan_20488 | Completed channel traversal for flit 6.
5 | network_0/network_0_fchan_20489 | Completed channel traversal for flit 5.
5 | network_0/network_0_fchan_20492 | Completed channel traversal for flit 7.
5 | network_0/network_0_fchan_20493 | Completed channel traversal for flit 3.
5 | network_0/network_0_fchan_20494 | Completed channel traversal for flit 4.
5 | network_0/network_0_fchan_20495 | Completed channel traversal for flit 2.
5 | network_0/network_0_fchan_20499 | Completed channel traversal for flit 9.
5 | network_0/router_level3_2 | Sending flit 10 to channel at output 11.
6 | network_0/network_0_fchan_20499 | Beginning channel traversal for flit 10 with delay 1.
6 | network_0/router_level2_0 | Received flit 6 from channel at input 1.
6 | network_0/router_level2_1 | Received flit 5 from channel at input 1.
6 | network_0/router_level2_2 | Received flit 1 from channel at input 0.
6 | network_0/router_level2_3 | Received flit 9 from channel at input 2.
6 | network_0/router_level2_4 | Received flit 7 from channel at input 1.
6 | network_0/router_level2_5 | Received flit 3 from channel at input 1.
6 | network_0/router_level2_6 | Received flit 4 from channel at input 1.
6 | network_0/router_level2_7 | Received flit 2 from channel at input 1.
6 | network_0/router_level2_0 | Adding flit 6 to VC 0 at input 1 (state: idle, empty).
6 | network_0/router_level2_0 | Using precomputed lookahead routing information for VC 0 at input 1 (front: 6).
6 | network_0/router_level2_0/buf_1/vc_0 | Changing state from idle to vc_alloc.
6 | network_0/router_level2_0 | Beginning VC allocation for VC 0 at input 1 (front: 6).
6 | network_0/router_level2_0 |   Requesting VC 0 at output 15 (in_pri: 0, out_pri: 0).
6 | network_0/router_level2_0 |   Requesting VC 1 at output 15 (in_pri: 0, out_pri: 0).
6 | network_0/router_level2_0 |   Requesting VC 2 at output 15 (in_pri: 0, out_pri: 0).
6 | network_0/router_level2_0 |   Requesting VC 3 at output 15 (in_pri: 0, out_pri: 0).
6 | network_0/router_level2_0/vc_allocator | Input requests = [ 4 -> [ 60@0 61@0 62@0 63@0 ]  20 -> [ 48@0 49@0 50@0 51@0 ]  28 -> [ 44@0 45@0 46@0 47@0 ]  ], output requests = [ 44 -> [ 28@0 ]  45 -> [ 28@0 ]  46 -> [ 28@0 ]  47 -> [ 28@0 ]  48 -> [ 20@0 ]  49 -> [ 20@0 ]  50 -> [ 20@0 ]  51 -> [ 20@0 ]  60 -> [ 4@0 ]  61 -> [ 4@0 ]  62 -> [ 4@0 ]  63 -> [ 4@0 ]  ].
6 | network_0/router_level2_0/vc_allocator | Input grants = [ 4 -> 60  20 -> 48  28 -> 44  ], output grants = [ 44 -> 28  48 -> 20  60 -> 4  ].
6 | network_0/router_level2_0 | Assigning VC 0 at output 15 to VC 0 at input 1.
6 | network_0/router_level2_0 | Completed VC allocation for VC 0 at input 1 (front: 6).
6 | network_0/router_level2_0 |   Acquiring assigned VC 0 at output 15.
6 | network_0/router_level2_0/buf_1/vc_0 | Changing state from vc_alloc to active.
6 | network_0/router_level2_1 | Adding flit 5 to VC 0 at input 1 (state: idle, empty).
6 | network_0/router_level2_1 | Using precomputed lookahead routing information for VC 0 at input 1 (front: 5).
6 | network_0/router_level2_1/buf_1/vc_0 | Changing state from idle to vc_alloc.
6 | network_0/router_level2_1 | Beginning VC allocation for VC 0 at input 1 (front: 5).
6 | network_0/router_level2_1 |   Requesting VC 0 at output 12 (in_pri: 0, out_pri: 0).
6 | network_0/router_level2_1 |   Requesting VC 1 at output 12 (in_pri: 0, out_pri: 0).
6 | network_0/router_level2_1 |   Requesting VC 2 at output 12 (in_pri: 0, out_pri: 0).
6 | network_0/router_level2_1 |   Requesting VC 3 at output 12 (in_pri: 0, out_pri: 0).
6 | network_0/router_level2_1/vc_allocator | Input requests = [ 4 -> [ 48@0 49@0 50@0 51@0 ]  20 -> [ 60@0 61@0 62@0 63@0 ]  24 -> [ 44@0 45@0 46@0 47@0 ]  ], output requests = [ 44 -> [ 24@0 ]  45 -> [ 24@0 ]  46 -> [ 24@0 ]  47 -> [ 24@0 ]  48 -> [ 4@0 ]  49 -> [ 4@0 ]  50 -> [ 4@0 ]  51 -> [ 4@0 ]  60 -> [ 20@0 ]  61 -> [ 20@0 ]  62 -> [ 20@0 ]  63 -> [ 20@0 ]  ].
6 | network_0/router_level2_1/vc_allocator | Input grants = [ 4 -> 48  20 -> 60  24 -> 44  ], output grants = [ 44 -> 24  48 -> 4  60 -> 20  ].
6 | network_0/router_level2_1 | Assigning VC 0 at output 12 to VC 0 at input 1.
6 | network_0/router_level2_1 | Completed VC allocation for VC 0 at input 1 (front: 5).
6 | network_0/router_level2_1 |   Acquiring assigned VC 0 at output 12.
6 | network_0/router_level2_1/buf_1/vc_0 | Changing state from vc_alloc to active.
6 | network_0/router_level2_2 | Adding flit 1 to VC 0 at input 0 (state: idle, empty).
6 | network_0/router_level2_2 | Using precomputed lookahead routing information for VC 0 at input 0 (front: 1).
6 | network_0/router_level2_2/buf_0/vc_0 | Changing state from idle to vc_alloc.
6 | network_0/router_level2_2 | Beginning VC allocation for VC 0 at input 0 (front: 1).
6 | network_0/router_level2_2 |   Requesting VC 0 at output 14 (in_pri: 0, out_pri: 0).
6 | network_0/router_level2_2 |   Requesting VC 1 at output 14 (in_pri: 0, out_pri: 0).
6 | network_0/router_level2_2 |   Requesting VC 2 at output 14 (in_pri: 0, out_pri: 0).
6 | network_0/router_level2_2 |   Requesting VC 3 at output 14 (in_pri: 0, out_pri: 0).
6 | network_0/router_level2_2/vc_allocator | Input requests = [ 0 -> [ 56@0 57@0 58@0 59@0 ]  8 -> [ 44@0 45@0 46@0 47@0 ]  12 -> [ 52@0 53@0 54@0 55@0 ]  ], output requests = [ 44 -> [ 8@0 ]  45 -> [ 8@0 ]  46 -> [ 8@0 ]  47 -> [ 8@0 ]  52 -> [ 12@0 ]  53 -> [ 12@0 ]  54 -> [ 12@0 ]  55 -> [ 12@0 ]  56 -> [ 0@0 ]  57 -> [ 0@0 ]  58 -> [ 0@0 ]  59 -> [ 0@0 ]  ].
6 | network_0/router_level2_2/vc_allocator | Input grants = [ 0 -> 56  8 -> 44  12 -> 52  ], output grants = [ 44 -> 8  52 -> 12  56 -> 0  ].
6 | network_0/router_level2_2 | Assigning VC 0 at output 14 to VC 0 at input 0.
6 | network_0/router_level2_2 | Completed VC allocation for VC 0 at input 0 (front: 1).
6 | network_0/router_level2_2 |   Acquiring assigned VC 0 at output 14.
6 | network_0/router_level2_2/buf_0/vc_0 | Changing state from vc_alloc to active.
6 | network_0/router_level2_3 | Adding flit 9 to VC 0 at input 2 (state: idle, empty).
6 | network_0/router_level2_3 | Using precomputed lookahead routing information for VC 0 at input 2 (front: 9).
6 | network_0/router_level2_3/buf_2/vc_0 | Changing state from idle to vc_alloc.
6 | network_0/router_level2_3 | Beginning VC allocation for VC 0 at input 2 (front: 9).
6 | network_0/router_level2_3 |   Requesting VC 0 at output 14 (in_pri: 0, out_pri: 0).
6 | network_0/router_level2_3 |   Requesting VC 1 at output 14 (in_pri: 0, out_pri: 0).
6 | network_0/router_level2_3 |   Requesting VC 2 at output 14 (in_pri: 0, out_pri: 0).
6 | network_0/router_level2_3 |   Requesting VC 3 at output 14 (in_pri: 0, out_pri: 0).
6 | network_0/router_level2_3/vc_allocator | Input requests = [ 8 -> [ 56@0 57@0 58@0 59@0 ]  12 -> [ 36@0 37@0 38@0 39@0 ]  20 -> [ 40@0 41@0 42@0 43@0 ]  24 -> [ 40@0 41@0 42@0 43@0 ]  ], output requests = [ 36 -> [ 12@0 ]  37 -> [ 12@0 ]  38 -> [ 12@0 ]  39 -> [ 12@0 ]  40 -> [ 20@0 24@0 ]  41 -> [ 20@0 24@0 ]  42 -> [ 20@0 24@0 ]  43 -> [ 20@0 24@0 ]  56 -> [ 8@0 ]  57 -> [ 8@0 ]  58 -> [ 8@0 ]  59 -> [ 8@0 ]  ].
6 | network_0/router_level2_3/vc_allocator | Input grants = [ 8 -> 56  12 -> 36  20 -> 40  ], output grants = [ 36 -> 12  40 -> 20  56 -> 8  ].
6 | network_0/router_level2_3 | Assigning VC 0 at output 14 to VC 0 at input 2.
6 | network_0/router_level2_3 | Completed VC allocation for VC 0 at input 2 (front: 9).
6 | network_0/router_level2_3 |   Acquiring assigned VC 0 at output 14.
6 | network_0/router_level2_3/buf_2/vc_0 | Changing state from vc_alloc to active.
6 | network_0/router_level2_4 | Adding flit 7 to VC 0 at input 1 (state: idle, empty).
6 | network_0/router_level2_4 | Using precomputed lookahead routing information for VC 0 at input 1 (front: 7).
6 | network_0/router_level2_4/buf_1/vc_0 | Changing state from idle to vc_alloc.
6 | network_0/router_level2_4 | Beginning VC allocation for VC 0 at input 1 (front: 7).
6 | network_0/router_level2_4 |   Requesting VC 0 at output 11 (in_pri: 0, out_pri: 0).
6 | network_0/router_level2_4 |   Requesting VC 1 at output 11 (in_pri: 0, out_pri: 0).
6 | network_0/router_level2_4 |   Requesting VC 2 at output 11 (in_pri: 0, out_pri: 0).
6 | network_0/router_level2_4 |   Requesting VC 3 at output 11 (in_pri: 0, out_pri: 0).
6 | network_0/router_level2_4/vc_allocator | Input requests = [ 4 -> [ 44@0 45@0 46@0 47@0 ]  8 -> [ 32@0 33@0 34@0 35@0 ]  12 -> [ 60@0 61@0 62@0 63@0 ]  16 -> [ 48@0 49@0 50@0 51@0 ]  20 -> [ 44@0 45@0 46@0 47@0 ]  ], output requests = [ 32 -> [ 8@0 ]  33 -> [ 8@0 ]  34 -> [ 8@0 ]  35 -> [ 8@0 ]  44 -> [ 4@0 20@0 ]  45 -> [ 4@0 20@0 ]  46 -> [ 4@0 20@0 ]  47 -> [ 4@0 20@0 ]  48 -> [ 16@0 ]  49 -> [ 16@0 ]  50 -> [ 16@0 ]  51 -> [ 16@0 ]  60 -> [ 12@0 ]  61 -> [ 12@0 ]  62 -> [ 12@0 ]  63 -> [ 12@0 ]  ].
6 | network_0/router_level2_4/vc_allocator | Input grants = [ 4 -> 44  8 -> 32  12 -> 60  16 -> 48  ], output grants = [ 32 -> 8  44 -> 4  48 -> 16  60 -> 12  ].
6 | network_0/router_level2_4 | Assigning VC 0 at output 11 to VC 0 at input 1.
6 | network_0/router_level2_4 | Completed VC allocation for VC 0 at input 1 (front: 7).
6 | network_0/router_level2_4 |   Acquiring assigned VC 0 at output 11.
6 | network_0/router_level2_4/buf_1/vc_0 | Changing state from vc_alloc to active.
6 | network_0/router_level2_5 | Adding flit 3 to VC 0 at input 1 (state: idle, empty).
6 | network_0/router_level2_5 | Using precomputed lookahead routing information for VC 0 at input 1 (front: 3).
6 | network_0/router_level2_5/buf_1/vc_0 | Changing state from idle to vc_alloc.
6 | network_0/router_level2_5 | Beginning VC allocation for VC 0 at input 1 (front: 3).
6 | network_0/router_level2_5 |   Requesting VC 0 at output 12 (in_pri: 0, out_pri: 0).
6 | network_0/router_level2_5 |   Requesting VC 1 at output 12 (in_pri: 0, out_pri: 0).
6 | network_0/router_level2_5 |   Requesting VC 2 at output 12 (in_pri: 0, out_pri: 0).
6 | network_0/router_level2_5 |   Requesting VC 3 at output 12 (in_pri: 0, out_pri: 0).
6 | network_0/router_level2_5/vc_allocator | Input requests = [ 4 -> [ 48@0 49@0 50@0 51@0 ]  8 -> [ 36@0 37@0 38@0 39@0 ]  20 -> [ 60@0 61@0 62@0 63@0 ]  ], output requests = [ 36 -> [ 8@0 ]  37 -> [ 8@0 ]  38 -> [ 8@0 ]  39 -> [ 8@0 ]  48 -> [ 4@0 ]  49 -> [ 4@0 ]  50 -> [ 4@0 ]  51 -> [ 4@0 ]  60 -> [ 20@0 ]  61 -> [ 20@0 ]  62 -> [ 20@0 ]  63 -> [ 20@0 ]  ].
6 | network_0/router_level2_5/vc_allocator | Input grants = [ 4 -> 48  8 -> 36  20 -> 60  ], output grants = [ 36 -> 8  48 -> 4  60 -> 20  ].
6 | network_0/router_level2_5 | Assigning VC 0 at output 12 to VC 0 at input 1.
6 | network_0/router_level2_5 | Completed VC allocation for VC 0 at input 1 (front: 3).
6 | network_0/router_level2_5 |   Acquiring assigned VC 0 at output 12.
6 | network_0/router_level2_5/buf_1/vc_0 | Changing state from vc_alloc to active.
6 | network_0/router_level2_6 | Adding flit 4 to VC 0 at input 1 (state: idle, empty).
6 | network_0/router_level2_6 | Using precomputed lookahead routing information for VC 0 at input 1 (front: 4).
6 | network_0/router_level2_6/buf_1/vc_0 | Changing state from idle to vc_alloc.
6 | network_0/router_level2_6 | Beginning VC allocation for VC 0 at input 1 (front: 4).
6 | network_0/router_level2_6 |   Requesting VC 0 at output 10 (in_pri: 0, out_pri: 0).
6 | network_0/router_level2_6 |   Requesting VC 1 at output 10 (in_pri: 0, out_pri: 0).
6 | network_0/router_level2_6 |   Requesting VC 2 at output 10 (in_pri: 0, out_pri: 0).
6 | network_0/router_level2_6 |   Requesting VC 3 at output 10 (in_pri: 0, out_pri: 0).
6 | network_0/router_level2_6/vc_allocator | Input requests = [ 4 -> [ 40@0 41@0 42@0 43@0 ]  28 -> [ 40@0 41@0 42@0 43@0 ]  ], output requests = [ 40 -> [ 4@0 28@0 ]  41 -> [ 4@0 28@0 ]  42 -> [ 4@0 28@0 ]  43 -> [ 4@0 28@0 ]  ].
6 | network_0/router_level2_6/vc_allocator | Input grants = [ 4 -> 40  ], output grants = [ 40 -> 4  ].
6 | network_0/router_level2_6 | Assigning VC 0 at output 10 to VC 0 at input 1.
6 | network_0/router_level2_6 | Completed VC allocation for VC 0 at input 1 (front: 4).
6 | network_0/router_level2_6 |   Acquiring assigned VC 0 at output 10.
6 | network_0/router_level2_6/buf_1/vc_0 | Changing state from vc_alloc to active.
6 | network_0/router_level2_7 | Adding flit 2 to VC 0 at input 1 (state: idle, empty).
6 | network_0/router_level2_7 | Using precomputed lookahead routing information for VC 0 at input 1 (front: 2).
6 | network_0/router_level2_7/buf_1/vc_0 | Changing state from idle to vc_alloc.
6 | network_0/router_level2_7 | Beginning VC allocation for VC 0 at input 1 (front: 2).
6 | network_0/router_level2_7 |   Requesting VC 0 at output 11 (in_pri: 0, out_pri: 0).
6 | network_0/router_level2_7 |   Requesting VC 1 at output 11 (in_pri: 0, out_pri: 0).
6 | network_0/router_level2_7 |   Requesting VC 2 at output 11 (in_pri: 0, out_pri: 0).
6 | network_0/router_level2_7 |   Requesting VC 3 at output 11 (in_pri: 0, out_pri: 0).
6 | network_0/router_level2_7/vc_allocator | Input requests = [ 0 -> [ 56@0 57@0 58@0 59@0 ]  4 -> [ 44@0 45@0 46@0 47@0 ]  12 -> [ 60@0 61@0 62@0 63@0 ]  20 -> [ 32@0 33@0 34@0 35@0 ]  24 -> [ 56@0 57@0 58@0 59@0 ]  28 -> [ 36@0 37@0 38@0 39@0 ]  ], output requests = [ 32 -> [ 20@0 ]  33 -> [ 20@0 ]  34 -> [ 20@0 ]  35 -> [ 20@0 ]  36 -> [ 28@0 ]  37 -> [ 28@0 ]  38 -> [ 28@0 ]  39 -> [ 28@0 ]  44 -> [ 4@0 ]  45 -> [ 4@0 ]  46 -> [ 4@0 ]  47 -> [ 4@0 ]  56 -> [ 0@0 24@0 ]  57 -> [ 0@0 24@0 ]  58 -> [ 0@0 24@0 ]  59 -> [ 0@0 24@0 ]  60 -> [ 12@0 ]  61 -> [ 12@0 ]  62 -> [ 12@0 ]  63 -> [ 12@0 ]  ].
6 | network_0/router_level2_7/vc_allocator | Input grants = [ 0 -> 56  4 -> 44  12 -> 60  20 -> 32  28 -> 36  ], output grants = [ 32 -> 20  36 -> 28  44 -> 4  56 -> 0  60 -> 12  ].
6 | network_0/router_level2_7 | Assigning VC 0 at output 11 to VC 0 at input 1.
6 | network_0/router_level2_7 | Completed VC allocation for VC 0 at input 1 (front: 2).
6 | network_0/router_level2_7 |   Acquiring assigned VC 0 at output 11.
6 | network_0/router_level2_7/buf_1/vc_0 | Changing state from vc_alloc to active.
6 | network_0/router_level3_1 | Beginning crossbar traversal for flit 8 from input 7.0 to output 13.0.
6 | network_0/router_level3_1 | Completed crossbar traversal for flit 8 from input 7.0 to output 13.0.
6 | network_0/router_level3_1 | Buffering flit 8 at output 13.
6 | network_0/network_0_fchan_20499 | Completed channel traversal for flit 10.
6 | network_0/router_level3_1 | Sending flit 8 to channel at output 13.
7 | network_0/network_0_fchan_20493 | Beginning channel traversal for flit 8 with delay 1.
7 | network_0/router_level2_3 | Received flit 10 from channel at input 2.
7 | network_0/router_level2_0 | Beginning switch allocation for VC 0 at input 1 (front: 6).
7 | network_0/router_level2_0 |   Requesting output 15.0 (non-spec, pri: 0).
7 | network_0/router_level2_0/sw_allocator | Input requests = [ 1 -> [ 15@0 ]  5 -> [ 12@0 ]  7 -> [ 11@0 ]  ], output requests = [ 11 -> [ 7@0 ]  12 -> [ 5@0 ]  15 -> [ 1@0 ]  ].
7 | network_0/router_level2_0/sw_allocator | Input grants = [ 1 -> 15  5 -> 12  7 -> 11  ], output grants = [ 11 -> 7  12 -> 5  15 -> 1  ].
7 | network_0/router_level2_0 | Assigning output 15.0 to VC 0 at input 1.0.
7 | network_0/router_level2_0 | Completed switch allocation for VC 0 at input 1 (front: 6).
7 | network_0/router_level2_0 |   Scheduling switch connection from input 1.0 to output 15.0.
7 | network_0/router_level2_0 | Updating lookahead routing information for flit 6.
7 | network_0/router_level2_1 | Beginning switch allocation for VC 0 at input 1 (front: 5).
7 | network_0/router_level2_1 |   Requesting output 12.0 (non-spec, pri: 0).
7 | network_0/router_level2_1/sw_allocator | Input requests = [ 1 -> [ 12@0 ]  5 -> [ 15@0 ]  6 -> [ 11@0 ]  ], output requests = [ 11 -> [ 6@0 ]  12 -> [ 1@0 ]  15 -> [ 5@0 ]  ].
7 | network_0/router_level2_1/sw_allocator | Input grants = [ 1 -> 12  5 -> 15  6 -> 11  ], output grants = [ 11 -> 6  12 -> 1  15 -> 5  ].
7 | network_0/router_level2_1 | Assigning output 12.0 to VC 0 at input 1.0.
7 | network_0/router_level2_1 | Completed switch allocation for VC 0 at input 1 (front: 5).
7 | network_0/router_level2_1 |   Scheduling switch connection from input 1.0 to output 12.0.
7 | network_0/router_level2_1 | Updating lookahead routing information for flit 5.
7 | network_0/router_level2_2 | Beginning switch allocation for VC 0 at input 0 (front: 1).
7 | network_0/router_level2_2 |   Requesting output 14.0 (non-spec, pri: 0).
7 | network_0/router_level2_2/sw_allocator | Input requests = [ 0 -> [ 14@0 ]  2 -> [ 11@0 ]  3 -> [ 13@0 ]  ], output requests = [ 11 -> [ 2@0 ]  13 -> [ 3@0 ]  14 -> [ 0@0 ]  ].
7 | network_0/router_level2_2/sw_allocator | Input grants = [ 0 -> 14  2 -> 11  3 -> 13  ], output grants = [ 11 -> 2  13 -> 3  14 -> 0  ].
7 | network_0/router_level2_2 | Assigning output 14.0 to VC 0 at input 0.0.
7 | network_0/router_level2_2 | Completed switch allocation for VC 0 at input 0 (front: 1).
7 | network_0/router_level2_2 |   Scheduling switch connection from input 0.0 to output 14.0.
7 | network_0/router_level2_2 | Updating lookahead routing information for flit 1.
7 | network_0/router_level2_3 | Adding flit 10 to VC 1 at input 2 (state: idle, empty).
7 | network_0/router_level2_3 | Using precomputed lookahead routing information for VC 1 at input 2 (front: 10).
7 | network_0/router_level2_3/buf_2/vc_1 | Changing state from idle to vc_alloc.
7 | network_0/router_level2_3 | Beginning VC allocation for VC 1 at input 2 (front: 10).
7 | network_0/router_level2_3 |   VC 0 at output 14 is in use by VC 0 at input 2 (front flit: 9).
7 | network_0/router_level2_3 |   Requesting VC 1 at output 14 (in_pri: 0, out_pri: 0).
7 | network_0/router_level2_3 |   Requesting VC 2 at output 14 (in_pri: 0, out_pri: 0).
7 | network_0/router_level2_3 |   Requesting VC 3 at output 14 (in_pri: 0, out_pri: 0).
7 | network_0/router_level2_3/vc_allocator | Input requests = [ 0 -> [ 57@0 58@0 59@0 ]  9 -> [ 57@0 58@0 59@0 ]  24 -> [ 41@0 42@0 43@0 ]  28 -> [ 48@0 49@0 50@0 51@0 ]  ], output requests = [ 41 -> [ 24@0 ]  42 -> [ 24@0 ]  43 -> [ 24@0 ]  48 -> [ 28@0 ]  49 -> [ 28@0 ]  50 -> [ 28@0 ]  51 -> [ 28@0 ]  57 -> [ 0@0 9@0 ]  58 -> [ 0@0 9@0 ]  59 -> [ 0@0 9@0 ]  ].
7 | network_0/router_level2_3/vc_allocator | Input grants = [ 0 -> 57  24 -> 41  28 -> 48  ], output grants = [ 41 -> 24  48 -> 28  57 -> 0  ].
7 | network_0/router_level2_3 | VC allocation failed for VC 1 at input 2.
7 | network_0/router_level2_3 | Beginning switch allocation for VC 0 at input 2 (front: 9).
7 | network_0/router_level2_3 |   Requesting output 14.0 (non-spec, pri: 0).
7 | network_0/router_level2_3/sw_allocator | Input requests = [ 2 -> [ 14@0 ]  3 -> [ 9@0 ]  5 -> [ 10@0 ]  ], output requests = [ 9 -> [ 3@0 ]  10 -> [ 5@0 ]  14 -> [ 2@0 ]  ].
7 | network_0/router_level2_3/sw_allocator | Input grants = [ 2 -> 14  3 -> 9  5 -> 10  ], output grants = [ 9 -> 3  10 -> 5  14 -> 2  ].
7 | network_0/router_level2_3 | Assigning output 14.0 to VC 0 at input 2.0.
7 | network_0/router_level2_3 | Completed VC allocation for VC 1 at input 2 (front: 10).
7 | network_0/router_level2_3 |   No output VC allocated.
7 | network_0/router_level2_3 | Completed switch allocation for VC 0 at input 2 (front: 9).
7 | network_0/router_level2_3 |   Scheduling switch connection from input 2.0 to output 14.0.
7 | network_0/router_level2_3 | Updating lookahead routing information for flit 9.
7 | network_0/router_level2_4 | Beginning switch allocation for VC 0 at input 1 (front: 7).
7 | network_0/router_level2_4 |   Requesting output 11.0 (non-spec, pri: 0).
7 | network_0/router_level2_4/sw_allocator | Input requests = [ 1 -> [ 11@0 ]  2 -> [ 8@0 ]  3 -> [ 15@0 ]  4 -> [ 12@0 ]  ], output requests = [ 8 -> [ 2@0 ]  11 -> [ 1@0 ]  12 -> [ 4@0 ]  15 -> [ 3@0 ]  ].
7 | network_0/router_level2_4/sw_allocator | Input grants = [ 1 -> 11  2 -> 8  3 -> 15  4 -> 12  ], output grants = [ 8 -> 2  11 -> 1  12 -> 4  15 -> 3  ].
7 | network_0/router_level2_4 | Assigning output 11.0 to VC 0 at input 1.0.
7 | network_0/router_level2_4 | Completed switch allocation for VC 0 at input 1 (front: 7).
7 | network_0/router_level2_4 |   Scheduling switch connection from input 1.0 to output 11.0.
7 | network_0/router_level2_4 | Updating lookahead routing information for flit 7.
7 | network_0/router_level2_5 | Beginning switch allocation for VC 0 at input 1 (front: 3).
7 | network_0/router_level2_5 |   Requesting output 12.0 (non-spec, pri: 0).
7 | network_0/router_level2_5/sw_allocator | Input requests = [ 1 -> [ 12@0 ]  2 -> [ 9@0 ]  5 -> [ 15@0 ]  ], output requests = [ 9 -> [ 2@0 ]  12 -> [ 1@0 ]  15 -> [ 5@0 ]  ].
7 | network_0/router_level2_5/sw_allocator | Input grants = [ 1 -> 12  2 -> 9  5 -> 15  ], output grants = [ 9 -> 2  12 -> 1  15 -> 5  ].
7 | network_0/router_level2_5 | Assigning output 12.0 to VC 0 at input 1.0.
7 | network_0/router_level2_5 | Completed switch allocation for VC 0 at input 1 (front: 3).
7 | network_0/router_level2_5 |   Scheduling switch connection from input 1.0 to output 12.0.
7 | network_0/router_level2_5 | Updating lookahead routing information for flit 3.
7 | network_0/router_level2_6 | Beginning switch allocation for VC 0 at input 1 (front: 4).
7 | network_0/router_level2_6 |   Requesting output 10.0 (non-spec, pri: 0).
7 | network_0/router_level2_6/sw_allocator | Input requests = [ 1 -> [ 10@0 ]  ], output requests = [ 10 -> [ 1@0 ]  ].
7 | network_0/router_level2_6/sw_allocator | Input grants = [ 1 -> 10  ], output grants = [ 10 -> 1  ].
7 | network_0/router_level2_6 | Assigning output 10.0 to VC 0 at input 1.0.
7 | network_0/router_level2_6 | Completed switch allocation for VC 0 at input 1 (front: 4).
7 | network_0/router_level2_6 |   Scheduling switch connection from input 1.0 to output 10.0.
7 | network_0/router_level2_6 | Updating lookahead routing information for flit 4.
7 | network_0/router_level2_7 | Beginning switch allocation for VC 0 at input 1 (front: 2).
7 | network_0/router_level2_7 |   Requesting output 11.0 (non-spec, pri: 0).
7 | network_0/router_level2_7/sw_allocator | Input requests = [ 0 -> [ 14@0 ]  1 -> [ 11@0 ]  3 -> [ 15@0 ]  5 -> [ 8@0 ]  7 -> [ 9@0 ]  ], output requests = [ 8 -> [ 5@0 ]  9 -> [ 7@0 ]  11 -> [ 1@0 ]  14 -> [ 0@0 ]  15 -> [ 3@0 ]  ].
7 | network_0/router_level2_7/sw_allocator | Input grants = [ 0 -> 14  1 -> 11  3 -> 15  5 -> 8  7 -> 9  ], output grants = [ 8 -> 5  9 -> 7  11 -> 1  14 -> 0  15 -> 3  ].
7 | network_0/router_level2_7 | Assigning output 11.0 to VC 0 at input 1.0.
7 | network_0/router_level2_7 | Completed switch allocation for VC 0 at input 1 (front: 2).
7 | network_0/router_level2_7 |   Scheduling switch connection from input 1.0 to output 11.0.
7 | network_0/router_level2_7 | Updating lookahead routing information for flit 2.
7 | network_0/network_0_fchan_20493 | Completed channel traversal for flit 8.
8 | network_0/router_level2_5 | Received flit 8 from channel at input 1.
8 | network_0/router_level2_0 | Beginning crossbar traversal for flit 6 from input 1.0 to output 15.0.
8 | network_0/router_level2_0 | Completed crossbar traversal for flit 6 from input 1.0 to output 15.0.
8 | network_0/router_level2_0 | Buffering flit 6 at output 15.
8 | network_0/router_level2_1 | Beginning crossbar traversal for flit 5 from input 1.0 to output 12.0.
8 | network_0/router_level2_1 | Completed crossbar traversal for flit 5 from input 1.0 to output 12.0.
8 | network_0/router_level2_1 | Buffering flit 5 at output 12.
8 | network_0/router_level2_2 | Beginning crossbar traversal for flit 1 from input 0.0 to output 14.0.
8 | network_0/router_level2_2 | Completed crossbar traversal for flit 1 from input 0.0 to output 14.0.
8 | network_0/router_level2_2 | Buffering flit 1 at output 14.
8 | network_0/router_level2_3 | Beginning VC allocation for VC 1 at input 2 (front: 10).
8 | network_0/router_level2_3 |   Requesting VC 0 at output 14 (in_pri: 0, out_pri: 0).
8 | network_0/router_level2_3 |   VC 1 at output 14 is in use by VC 0 at input 0 (front flit: 1993).
8 | network_0/router_level2_3 |   Requesting VC 2 at output 14 (in_pri: 0, out_pri: 0).
8 | network_0/router_level2_3 |   Requesting VC 3 at output 14 (in_pri: 0, out_pri: 0).
8 | network_0/router_level2_3/vc_allocator | Input requests = [ 1 -> [ 32@0 33@0 34@0 35@0 ]  8 -> [ 56@0 58@0 59@0 ]  9 -> [ 56@0 58@0 59@0 ]  12 -> [ 52@0 53@0 54@0 55@0 ]  16 -> [ 32@0 33@0 34@0 35@0 ]  20 -> [ 40@0 42@0 43@0 ]  29 -> [ 32@0 33@0 34@0 35@0 ]  ], output requests = [ 32 -> [ 1@0 16@0 29@0 ]  33 -> [ 1@0 16@0 29@0 ]  34 -> [ 1@0 16@0 29@0 ]  35 -> [ 1@0 16@0 29@0 ]  40 -> [ 20@0 ]  42 -> [ 20@0 ]  43 -> [ 20@0 ]  52 -> [ 12@0 ]  53 -> [ 12@0 ]  54 -> [ 12@0 ]  55 -> [ 12@0 ]  56 -> [ 8@0 9@0 ]  58 -> [ 8@0 9@0 ]  59 -> [ 8@0 9@0 ]  ].
8 | network_0/router_level2_3/vc_allocator | Input grants = [ 1 -> 32  8 -> 58  9 -> 56  12 -> 52  20 -> 42  ], output grants = [ 32 -> 1  42 -> 20  52 -> 12  56 -> 9  58 -> 8  ].
8 | network_0/router_level2_3 | Assigning VC 0 at output 14 to VC 1 at input 2.
8 | network_0/router_level2_3 | Beginning crossbar traversal for flit 9 from input 2.0 to output 14.0.
8 | network_0/router_level2_3 | Completed VC allocation for VC 1 at input 2 (front: 10).
8 | network_0/router_level2_3 |   Acquiring assigned VC 0 at output 14.
8 | network_0/router_level2_3/buf_2/vc_1 | Changing state from vc_alloc to active.
8 | network_0/router_level2_3 | Completed crossbar traversal for flit 9 from input 2.0 to output 14.0.
8 | network_0/router_level2_3 | Buffering flit 9 at output 14.
8 | network_0/router_level2_4 | Beginning crossbar traversal for flit 7 from input 1.0 to output 11.0.
8 | network_0/router_level2_4 | Completed crossbar traversal for flit 7 from input 1.0 to output 11.0.
8 | network_0/router_level2_4 | Buffering flit 7 at output 11.
8 | network_0/router_level2_5 | Adding flit 8 to VC 0 at input 1 (state: idle, empty).
8 | network_0/router_level2_5 | Using precomputed lookahead routing information for VC 0 at input 1 (front: 8).
8 | network_0/router_level2_5/buf_1/vc_0 | Changing state from idle to vc_alloc.
8 | network_0/router_level2_5 | Beginning VC allocation for VC 0 at input 1 (front: 8).
8 | network_0/router_level2_5 |   Requesting VC 0 at output 12 (in_pri: 0, out_pri: 0).
8 | network_0/router_level2_5 |   Requesting VC 1 at output 12 (in_pri: 0, out_pri: 0).
8 | network_0/router_level2_5 |   Requesting VC 2 at output 12 (in_pri: 0, out_pri: 0).
8 | network_0/router_level2_5 |   Requesting VC 3 at output 12 (in_pri: 0, out_pri: 0).
8 | network_0/router_level2_5/vc_allocator | Input requests = [ 1 -> [ 45@0 46@0 47@0 ]  4 -> [ 48@0 49@0 50@0 51@0 ]  5 -> [ 45@0 46@0 47@0 ]  ], output requests = [ 45 -> [ 1@0 5@0 ]  46 -> [ 1@0 5@0 ]  47 -> [ 1@0 5@0 ]  48 -> [ 4@0 ]  49 -> [ 4@0 ]  50 -> [ 4@0 ]  51 -> [ 4@0 ]  ].
8 | network_0/router_level2_5/vc_allocator | Input grants = [ 1 -> 45  4 -> 49  ], output grants = [ 45 -> 1  49 -> 4  ].
8 | network_0/router_level2_5 | Assigning VC 1 at output 12 to VC 0 at input 1.
8 | network_0/router_level2_5 | Beginning crossbar traversal for flit 3 from input 1.0 to output 12.0.
8 | network_0/router_level2_5 | Completed VC allocation for VC 0 at input 1 (front: 8).
8 | network_0/router_level2_5 |   Acquiring assigned VC 1 at output 12.
8 | network_0/router_level2_5/buf_1/vc_0 | Changing state from vc_alloc to active.
8 | network_0/router_level2_5 | Completed crossbar traversal for flit 3 from input 1.0 to output 12.0.
8 | network_0/router_level2_5 | Buffering flit 3 at output 12.
8 | network_0/router_level2_6 | Beginning crossbar traversal for flit 4 from input 1.0 to output 10.0.
8 | network_0/router_level2_6 | Completed crossbar traversal for flit 4 from input 1.0 to output 10.0.
8 | network_0/router_level2_6 | Buffering flit 4 at output 10.
8 | network_0/router_level2_7 | Beginning crossbar traversal for flit 2 from input 1.0 to output 11.0.
8 | network_0/router_level2_7 | Completed crossbar traversal for flit 2 from input 1.0 to output 11.0.
8 | network_0/router_level2_7 | Buffering flit 2 at output 11.
8 | network_0/router_level2_0 | Sending flit 6 to channel at output 15.
8 | network_0/router_level2_1 | Sending flit 5 to channel at output 12.
8 | network_0/router_level2_2 | Sending flit 1 to channel at output 14.
8 | network_0/router_level2_3 | Sending flit 9 to channel at output 14.
8 | network_0/router_level2_4 | Sending flit 7 to channel at output 11.
8 | network_0/router_level2_5 | Sending flit 3 to channel at output 12.
8 | network_0/router_level2_6 | Sending flit 4 to channel at output 10.
8 | network_0/router_level2_7 | Sending flit 2 to channel at output 11.
9 | network_0/network_0_fchan_12295 | Beginning channel traversal for flit 6 with delay 1.
9 | network_0/network_0_fchan_12300 | Beginning channel traversal for flit 5 with delay 1.
9 | network_0/network_0_fchan_12310 | Beginning channel traversal for flit 1 with delay 1.
9 | network_0/network_0_fchan_12318 | Beginning channel traversal for flit 9 with delay 1.
9 | network_0/network_0_fchan_12323 | Beginning channel traversal for flit 7 with delay 1.
9 | network_0/network_0_fchan_12332 | Beginning channel traversal for flit 3 with delay 1.
9 | network_0/network_0_fchan_12338 | Beginning channel traversal for flit 4 with delay 1.
9 | network_0/network_0_fchan_12347 | Beginning channel traversal for flit 2 with delay 1.
9 | network_0/router_level2_3 | Beginning switch allocation for VC 1 at input 2 (front: 10).
9 | network_0/router_level2_3 |   Requesting output 14.0 (non-spec, pri: 0).
9 | network_0/router_level2_3/sw_allocator | Input requests = [ 0 -> [ 8@0 ]  2 -> [ 14@0 ]  3 -> [ 13@0 ]  5 -> [ 10@0 ]  ], output requests = [ 8 -> [ 0@0 ]  10 -> [ 5@0 ]  13 -> [ 3@0 ]  14 -> [ 2@0 ]  ].
9 | network_0/router_level2_3/sw_allocator | Input grants = [ 0 -> 8  2 -> 14  3 -> 13  5 -> 10  ], output grants = [ 8 -> 0  10 -> 5  13 -> 3  14 -> 2  ].
9 | network_0/router_level2_3 | Assigning output 14.0 to VC 1 at input 2.0.
9 | network_0/router_level2_3 | Completed switch allocation for VC 1 at input 2 (front: 10).
9 | network_0/router_level2_3 |   Scheduling switch connection from input 2.0 to output 14.0.
9 | network_0/router_level2_3 | Updating lookahead routing information for flit 10.
9 | network_0/router_level2_5 | Beginning switch allocation for VC 0 at input 1 (front: 8).
9 | network_0/router_level2_5 |   Requesting output 12.0 (non-spec, pri: 0).
9 | network_0/router_level2_5/sw_allocator | Input requests = [ 0 -> [ 11@0 ]  1 -> [ 12@0 ]  ], output requests = [ 11 -> [ 0@0 ]  12 -> [ 1@0 ]  ].
9 | network_0/router_level2_5/sw_allocator | Input grants = [ 0 -> 11  1 -> 12  ], output grants = [ 11 -> 0  12 -> 1  ].
9 | network_0/router_level2_5 | Assigning output 12.0 to VC 0 at input 1.0.
9 | network_0/router_level2_5 | Completed switch allocation for VC 0 at input 1 (front: 8).
9 | network_0/router_level2_5 |   Scheduling switch connection from input 1.0 to output 12.0.
9 | network_0/router_level2_5 | Updating lookahead routing information for flit 8.
9 | network_0/network_0_fchan_12295 | Completed channel traversal for flit 6.
9 | network_0/network_0_fchan_12300 | Completed channel traversal for flit 5.
9 | network_0/network_0_fchan_12310 | Completed channel traversal for flit 1.
9 | network_0/network_0_fchan_12318 | Completed channel traversal for flit 9.
9 | network_0/network_0_fchan_12323 | Completed channel traversal for flit 7.
9 | network_0/network_0_fchan_12332 | Completed channel traversal for flit 3.
9 | network_0/network_0_fchan_12338 | Completed channel traversal for flit 4.
9 | network_0/network_0_fchan_12347 | Completed channel traversal for flit 2.
10 | network_0/router_level1_22 | Received flit 4 from channel at input 0.
10 | network_0/router_level1_28 | Received flit 7 from channel at input 0.
10 | network_0/router_level1_31 | Received flit 2 from channel at input 0.
10 | network_0/router_level1_33 | Received flit 5 from channel at input 0.
10 | network_0/router_level1_37 | Received flit 3 from channel at input 0.
10 | network_0/router_level1_50 | Received flit 1 from channel at input 0.
10 | network_0/router_level1_51 | Received flit 9 from channel at input 0.
10 | network_0/router_level1_56 | Received flit 6 from channel at input 0.
10 | network_0/router_level1_22 | Adding flit 4 to VC 0 at input 0 (state: idle, empty).
10 | network_0/router_level1_22 | Using precomputed lookahead routing information for VC 0 at input 0 (front: 4).
10 | network_0/router_level1_22/buf_0/vc_0 | Changing state from idle to vc_alloc.
10 | network_0/router_level1_22 | Beginning VC allocation for VC 0 at input 0 (front: 4).
10 | network_0/router_level1_22 |   Requesting VC 0 at output 11 (in_pri: 0, out_pri: 0).
10 | network_0/router_level1_22 |   Requesting VC 1 at output 11 (in_pri: 0, out_pri: 0).
10 | network_0/router_level1_22 |   Requesting VC 2 at output 11 (in_pri: 0, out_pri: 0).
10 | network_0/router_level1_22 |   Requesting VC 3 at output 11 (in_pri: 0, out_pri: 0).
10 | network_0/router_level1_22/vc_allocator | Input requests = [ 0 -> [ 44@0 45@0 46@0 47@0 ]  4 -> [ 48@0 49@0 50@0 51@0 ]  28 -> [ 56@0 57@0 58@0 59@0 ]  ], output requests = [ 44 -> [ 0@0 ]  45 -> [ 0@0 ]  46 -> [ 0@0 ]  47 -> [ 0@0 ]  48 -> [ 4@0 ]  49 -> [ 4@0 ]  50 -> [ 4@0 ]  51 -> [ 4@0 ]  56 -> [ 28@0 ]  57 -> [ 28@0 ]  58 -> [ 28@0 ]  59 -> [ 28@0 ]  ].
10 | network_0/router_level1_22/vc_allocator | Input grants = [ 0 -> 44  4 -> 48  28 -> 56  ], output grants = [ 44 -> 0  48 -> 4  56 -> 28  ].
10 | network_0/router_level1_22 | Assigning VC 0 at output 11 to VC 0 at input 0.
10 | network_0/router_level1_22 | Completed VC allocation for VC 0 at input 0 (front: 4).
10 | network_0/router_level1_22 |   Acquiring assigned VC 0 at output 11.
10 | network_0/router_level1_22/buf_0/vc_0 | Changing state from vc_alloc to active.
10 | network_0/router_level1_28 | Adding flit 7 to VC 0 at input 0 (state: idle, empty).
10 | network_0/router_level1_28 | Using precomputed lookahead routing information for VC 0 at input 0 (front: 7).
10 | network_0/router_level1_28/buf_0/vc_0 | Changing state from idle to vc_alloc.
10 | network_0/router_level1_28 | Beginning VC allocation for VC 0 at input 0 (front: 7).
10 | network_0/router_level1_28 |   Requesting VC 0 at output 10 (in_pri: 0, out_pri: 0).
10 | network_0/router_level1_28 |   Requesting VC 1 at output 10 (in_pri: 0, out_pri: 0).
10 | network_0/router_level1_28 |   Requesting VC 2 at output 10 (in_pri: 0, out_pri: 0).
10 | network_0/router_level1_28 |   Requesting VC 3 at output 10 (in_pri: 0, out_pri: 0).
10 | network_0/router_level1_28/vc_allocator | Input requests = [ 0 -> [ 40@0 41@0 42@0 43@0 ]  16 -> [ 40@0 41@0 42@0 43@0 ]  ], output requests = [ 40 -> [ 0@0 16@0 ]  41 -> [ 0@0 16@0 ]  42 -> [ 0@0 16@0 ]  43 -> [ 0@0 16@0 ]  ].
10 | network_0/router_level1_28/vc_allocator | Input grants = [ 0 -> 40  ], output grants = [ 40 -> 0  ].
10 | network_0/router_level1_28 | Assigning VC 0 at output 10 to VC 0 at input 0.
10 | network_0/router_level1_28 | Completed VC allocation for VC 0 at input 0 (front: 7).
10 | network_0/router_level1_28 |   Acquiring assigned VC 0 at output 10.
10 | network_0/router_level1_28/buf_0/vc_0 | Changing state from vc_alloc to active.
10 | network_0/router_level1_31 | Adding flit 2 to VC 0 at input 0 (state: idle, empty).
10 | network_0/router_level1_31 | Using precomputed lookahead routing information for VC 0 at input 0 (front: 2).
10 | network_0/router_level1_31/buf_0/vc_0 | Changing state from idle to vc_alloc.
10 | network_0/router_level1_31 | Beginning VC allocation for VC 0 at input 0 (front: 2).
10 | network_0/router_level1_31 |   Requesting VC 0 at output 9 (in_pri: 0, out_pri: 0).
10 | network_0/router_level1_31 |   Requesting VC 1 at output 9 (in_pri: 0, out_pri: 0).
10 | network_0/router_level1_31 |   Requesting VC 2 at output 9 (in_pri: 0, out_pri: 0).
10 | network_0/router_level1_31 |   Requesting VC 3 at output 9 (in_pri: 0, out_pri: 0).
10 | network_0/router_level1_31/vc_allocator | Input requests = [ 0 -> [ 36@0 37@0 38@0 39@0 ]  8 -> [ 36@0 37@0 38@0 39@0 ]  12 -> [ 44@0 45@0 46@0 47@0 ]  16 -> [ 52@0 53@0 54@0 55@0 ]  20 -> [ 36@0 37@0 38@0 39@0 ]  ], output requests = [ 36 -> [ 0@0 8@0 20@0 ]  37 -> [ 0@0 8@0 20@0 ]  38 -> [ 0@0 8@0 20@0 ]  39 -> [ 0@0 8@0 20@0 ]  44 -> [ 12@0 ]  45 -> [ 12@0 ]  46 -> [ 12@0 ]  47 -> [ 12@0 ]  52 -> [ 16@0 ]  53 -> [ 16@0 ]  54 -> [ 16@0 ]  55 -> [ 16@0 ]  ].
10 | network_0/router_level1_31/vc_allocator | Input grants = [ 0 -> 36  12 -> 44  16 -> 52  ], output grants = [ 36 -> 0  44 -> 12  52 -> 16  ].
10 | network_0/router_level1_31 | Assigning VC 0 at output 9 to VC 0 at input 0.
10 | network_0/router_level1_31 | Completed VC allocation for VC 0 at input 0 (front: 2).
10 | network_0/router_level1_31 |   Acquiring assigned VC 0 at output 9.
10 | network_0/router_level1_31/buf_0/vc_0 | Changing state from vc_alloc to active.
10 | network_0/router_level1_33 | Adding flit 5 to VC 0 at input 0 (state: idle, empty).
10 | network_0/router_level1_33 | Using precomputed lookahead routing information for VC 0 at input 0 (front: 5).
10 | network_0/router_level1_33/buf_0/vc_0 | Changing state from idle to vc_alloc.
10 | network_0/router_level1_33 | Beginning VC allocation for VC 0 at input 0 (front: 5).
10 | network_0/router_level1_33 |   Requesting VC 0 at output 9 (in_pri: 0, out_pri: 0).
10 | network_0/router_level1_33 |   Requesting VC 1 at output 9 (in_pri: 0, out_pri: 0).
10 | network_0/router_level1_33 |   Requesting VC 2 at output 9 (in_pri: 0, out_pri: 0).
10 | network_0/router_level1_33 |   Requesting VC 3 at output 9 (in_pri: 0, out_pri: 0).
10 | network_0/router_level1_33/vc_allocator | Input requests = [ 0 -> [ 36@0 37@0 38@0 39@0 ]  4 -> [ 48@0 49@0 50@0 51@0 ]  16 -> [ 44@0 45@0 46@0 47@0 ]  20 -> [ 32@0 33@0 34@0 35@0 ]  ], output requests = [ 32 -> [ 20@0 ]  33 -> [ 20@0 ]  34 -> [ 20@0 ]  35 -> [ 20@0 ]  36 -> [ 0@0 ]  37 -> [ 0@0 ]  38 -> [ 0@0 ]  39 -> [ 0@0 ]  44 -> [ 16@0 ]  45 -> [ 16@0 ]  46 -> [ 16@0 ]  47 -> [ 16@0 ]  48 -> [ 4@0 ]  49 -> [ 4@0 ]  50 -> [ 4@0 ]  51 -> [ 4@0 ]  ].
10 | network_0/router_level1_33/vc_allocator | Input grants = [ 0 -> 36  4 -> 48  16 -> 44  20 -> 32  ], output grants = [ 32 -> 20  36 -> 0  44 -> 16  48 -> 4  ].
10 | network_0/router_level1_33 | Assigning VC 0 at output 9 to VC 0 at input 0.
10 | network_0/router_level1_33 | Completed VC allocation for VC 0 at input 0 (front: 5).
10 | network_0/router_level1_33 |   Acquiring assigned VC 0 at output 9.
10 | network_0/router_level1_33/buf_0/vc_0 | Changing state from vc_alloc to active.
10 | network_0/router_level1_37 | Adding flit 3 to VC 0 at input 0 (state: idle, empty).
10 | network_0/router_level1_37 | Using precomputed lookahead routing information for VC 0 at input 0 (front: 3).
10 | network_0/router_level1_37/buf_0/vc_0 | Changing state from idle to vc_alloc.
10 | network_0/router_level1_37 | Beginning VC allocation for VC 0 at input 0 (front: 3).
10 | network_0/router_level1_37 |   Requesting VC 0 at output 13 (in_pri: 0, out_pri: 0).
10 | network_0/router_level1_37 |   Requesting VC 1 at output 13 (in_pri: 0, out_pri: 0).
10 | network_0/router_level1_37 |   Requesting VC 2 at output 13 (in_pri: 0, out_pri: 0).
10 | network_0/router_level1_37 |   Requesting VC 3 at output 13 (in_pri: 0, out_pri: 0).
10 | network_0/router_level1_37/vc_allocator | Input requests = [ 0 -> [ 52@0 53@0 54@0 55@0 ]  16 -> [ 32@0 33@0 34@0 35@0 ]  20 -> [ 36@0 37@0 38@0 39@0 ]  24 -> [ 56@0 57@0 58@0 59@0 ]  ], output requests = [ 32 -> [ 16@0 ]  33 -> [ 16@0 ]  34 -> [ 16@0 ]  35 -> [ 16@0 ]  36 -> [ 20@0 ]  37 -> [ 20@0 ]  38 -> [ 20@0 ]  39 -> [ 20@0 ]  52 -> [ 0@0 ]  53 -> [ 0@0 ]  54 -> [ 0@0 ]  55 -> [ 0@0 ]  56 -> [ 24@0 ]  57 -> [ 24@0 ]  58 -> [ 24@0 ]  59 -> [ 24@0 ]  ].
10 | network_0/router_level1_37/vc_allocator | Input grants = [ 0 -> 52  16 -> 32  20 -> 36  24 -> 56  ], output grants = [ 32 -> 16  36 -> 20  52 -> 0  56 -> 24  ].
10 | network_0/router_level1_37 | Assigning VC 0 at output 13 to VC 0 at input 0.
10 | network_0/router_level1_37 | Completed VC allocation for VC 0 at input 0 (front: 3).
10 | network_0/router_level1_37 |   Acquiring assigned VC 0 at output 13.
10 | network_0/router_level1_37/buf_0/vc_0 | Changing state from vc_alloc to active.
10 | network_0/router_level1_50 | Adding flit 1 to VC 0 at input 0 (state: idle, empty).
10 | network_0/router_level1_50 | Using precomputed lookahead routing information for VC 0 at input 0 (front: 1).
10 | network_0/router_level1_50/buf_0/vc_0 | Changing state from idle to vc_alloc.
10 | network_0/router_level1_50 | Beginning VC allocation for VC 0 at input 0 (front: 1).
10 | network_0/router_level1_50 |   Requesting VC 0 at output 12 (in_pri: 0, out_pri: 0).
10 | network_0/router_level1_50 |   Requesting VC 1 at output 12 (in_pri: 0, out_pri: 0).
10 | network_0/router_level1_50 |   Requesting VC 2 at output 12 (in_pri: 0, out_pri: 0).
10 | network_0/router_level1_50 |   Requesting VC 3 at output 12 (in_pri: 0, out_pri: 0).
10 | network_0/router_level1_50/vc_allocator | Input requests = [ 0 -> [ 48@0 49@0 50@0 51@0 ]  16 -> [ 60@0 61@0 62@0 63@0 ]  ], output requests = [ 48 -> [ 0@0 ]  49 -> [ 0@0 ]  50 -> [ 0@0 ]  51 -> [ 0@0 ]  60 -> [ 16@0 ]  61 -> [ 16@0 ]  62 -> [ 16@0 ]  63 -> [ 16@0 ]  ].
10 | network_0/router_level1_50/vc_allocator | Input grants = [ 0 -> 48  16 -> 60  ], output grants = [ 48 -> 0  60 -> 16  ].
10 | network_0/router_level1_50 | Assigning VC 0 at output 12 to VC 0 at input 0.
10 | network_0/router_level1_50 | Completed VC allocation for VC 0 at input 0 (front: 1).
10 | network_0/router_level1_50 |   Acquiring assigned VC 0 at output 12.
10 | network_0/router_level1_50/buf_0/vc_0 | Changing state from vc_alloc to active.
10 | network_0/router_level1_51 | Adding flit 9 to VC 0 at input 0 (state: idle, empty).
10 | network_0/router_level1_51 | Using precomputed lookahead routing information for VC 0 at input 0 (front: 9).
10 | network_0/router_level1_51/buf_0/vc_0 | Changing state from idle to vc_alloc.
10 | network_0/router_level1_51 | Beginning VC allocation for VC 0 at input 0 (front: 9).
10 | network_0/router_level1_51 |   Requesting VC 0 at output 12 (in_pri: 0, out_pri: 0).
10 | network_0/router_level1_51 |   Requesting VC 1 at output 12 (in_pri: 0, out_pri: 0).
10 | network_0/router_level1_51 |   Requesting VC 2 at output 12 (in_pri: 0, out_pri: 0).
10 | network_0/router_level1_51 |   Requesting VC 3 at output 12 (in_pri: 0, out_pri: 0).
10 | network_0/router_level1_51/vc_allocator | Input requests = [ 0 -> [ 48@0 49@0 50@0 51@0 ]  16 -> [ 60@0 61@0 62@0 63@0 ]  24 -> [ 40@0 41@0 42@0 43@0 ]  28 -> [ 44@0 45@0 46@0 47@0 ]  ], output requests = [ 40 -> [ 24@0 ]  41 -> [ 24@0 ]  42 -> [ 24@0 ]  43 -> [ 24@0 ]  44 -> [ 28@0 ]  45 -> [ 28@0 ]  46 -> [ 28@0 ]  47 -> [ 28@0 ]  48 -> [ 0@0 ]  49 -> [ 0@0 ]  50 -> [ 0@0 ]  51 -> [ 0@0 ]  60 -> [ 16@0 ]  61 -> [ 16@0 ]  62 -> [ 16@0 ]  63 -> [ 16@0 ]  ].
10 | network_0/router_level1_51/vc_allocator | Input grants = [ 0 -> 48  16 -> 60  24 -> 40  28 -> 44  ], output grants = [ 40 -> 24  44 -> 28  48 -> 0  60 -> 16  ].
10 | network_0/router_level1_51 | Assigning VC 0 at output 12 to VC 0 at input 0.
10 | network_0/router_level1_51 | Completed VC allocation for VC 0 at input 0 (front: 9).
10 | network_0/router_level1_51 |   Acquiring assigned VC 0 at output 12.
10 | network_0/router_level1_51/buf_0/vc_0 | Changing state from vc_alloc to active.
10 | network_0/router_level1_56 | Adding flit 6 to VC 0 at input 0 (state: idle, empty).
10 | network_0/router_level1_56 | Using precomputed lookahead routing information for VC 0 at input 0 (front: 6).
10 | network_0/router_level1_56/buf_0/vc_0 | Changing state from idle to vc_alloc.
10 | network_0/router_level1_56 | Beginning VC allocation for VC 0 at input 0 (front: 6).
10 | network_0/router_level1_56 |   Requesting VC 0 at output 9 (in_pri: 0, out_pri: 0).
10 | network_0/router_level1_56 |   Requesting VC 1 at output 9 (in_pri: 0, out_pri: 0).
10 | network_0/router_level1_56 |   Requesting VC 2 at output 9 (in_pri: 0, out_pri: 0).
10 | network_0/router_level1_56 |   Requesting VC 3 at output 9 (in_pri: 0, out_pri: 0).
10 | network_0/router_level1_56/vc_allocator | Input requests = [ 0 -> [ 36@0 37@0 38@0 39@0 ]  8 -> [ 36@0 37@0 38@0 39@0 ]  12 -> [ 48@0 49@0 50@0 51@0 ]  16 -> [ 36@0 37@0 38@0 39@0 ]  20 -> [ 36@0 37@0 38@0 39@0 ]  ], output requests = [ 36 -> [ 0@0 8@0 16@0 20@0 ]  37 -> [ 0@0 8@0 16@0 20@0 ]  38 -> [ 0@0 8@0 16@0 20@0 ]  39 -> [ 0@0 8@0 16@0 20@0 ]  48 -> [ 12@0 ]  49 -> [ 12@0 ]  50 -> [ 12@0 ]  51 -> [ 12@0 ]  ].
10 | network_0/router_level1_56/vc_allocator | Input grants = [ 0 -> 36  12 -> 48  ], output grants = [ 36 -> 0  48 -> 12  ].
10 | network_0/router_level1_56 | Assigning VC 0 at output 9 to VC 0 at input 0.
10 | network_0/router_level1_56 | Completed VC allocation for VC 0 at input 0 (front: 6).
10 | network_0/router_level1_56 |   Acquiring assigned VC 0 at output 9.
10 | network_0/router_level1_56/buf_0/vc_0 | Changing state from vc_alloc to active.
10 | network_0/router_level2_3 | Beginning crossbar traversal for flit 10 from input 2.0 to output 14.0.
[...]
28 | network_0/router_level3_509 |   Requesting VC 3 at output 4 (in_pri: 0, out_pri: 0).
28 | network_0/router_level3_509/vc_allocator | Input requests = [ 5 -> [ 52@0 ]  10 -> [ 61@0 62@0 63@0 ]  15 -> [ 33@0 34@0 35@0 ]  16 -> [ 44@0 45@0 46@0 47@0 ]  22 -> [ 56@0 59@0 ]  23 -> [ 44@0 45@0 46@0 47@0 ]  28 -> [ 44@0 45@0 46@0 47@0 ]  45 -> [ 16@0 17@0 18@0 19@0 ]  48 -> [ 0@0 1@0 2@0 3@0 ]  ], output requests = [ 0 -> [ 48@0 ]  1 -> [ 48@0 ]  2 -> [ 48@0 ]  3 -> [ 48@0 ]  16 -> [ 45@0 ]  17 -> [ 45@0 ]  18 -> [ 45@0 ]  19 -> [ 45@0 ]  33 -> [ 15@0 ]  34 -> [ 15@0 ]  35 -> [ 15@0 ]  44 -> [ 16@0 23@0 28@0 ]  45 -> [ 16@0 23@0 28@0 ]  46 -> [ 16@0 23@0 28@0 ]  47 -> [ 16@0 23@0 28@0 ]  52 -> [ 5@0 ]  56 -> [ 22@0 ]  59 -> [ 22@0 ]  61 -> [ 10@0 ]  62 -> [ 10@0 ]  63 -> [ 10@0 ]  ].
28 | network_0/router_level3_509/vc_allocator | Input grants = [ 5 -> 52  10 -> 61  15 -> 33  16 -> 45  22 -> 56  23 -> 44  45 -> 16  48 -> 0  ], output grants = [ 0 -> 48  16 -> 45  33 -> 15  44 -> 23  45 -> 16  52 -> 5  56 -> 22  61 -> 10  ].
28 | network_0/router_level3_509 | Assigning VC 0 at output 4 to VC 1 at input 11.
28 | network_0/router_level3_509 | Beginning crossbar traversal for flit 9 from input 11.0 to output 5.0.
28 | network_0/router_level3_509 | Completed VC allocation for VC 1 at input 11 (front: 10).
28 | network_0/router_level3_509 |   Acquiring assigned VC 0 at output 4.
28 | network_0/router_level3_509/buf_11/vc_1 | Changing state from vc_alloc to active.
28 | network_0/router_level3_509 | Completed crossbar traversal for flit 9 from input 11.0 to output 5.0.
28 | network_0/router_level3_509 | Buffering flit 9 at output 5.
28 | network_0/router_level3_510 | Adding flit 8 to VC 1 at input 13 (state: idle, empty).
28 | network_0/router_level3_510 | Using precomputed lookahead routing information for VC 1 at input 13 (front: 8).
28 | network_0/router_level3_510/buf_13/vc_1 | Changing state from idle to vc_alloc.
28 | network_0/router_level3_510 | Beginning VC allocation for VC 1 at input 13 (front: 8).
28 | network_0/router_level3_510 |   Requesting VC 0 at output 0 (in_pri: 0, out_pri: 0).
28 | network_0/router_level3_510 |   Requesting VC 1 at output 0 (in_pri: 0, out_pri: 0).
28 | network_0/router_level3_510 |   Requesting VC 2 at output 0 (in_pri: 0, out_pri: 0).
28 | network_0/router_level3_510 |   Requesting VC 3 at output 0 (in_pri: 0, out_pri: 0).
28 | network_0/router_level3_510/vc_allocator | Input requests = [ 3 -> [ 56@0 57@0 58@0 59@0 ]  8 -> [ 44@0 46@0 47@0 ]  21 -> [ 33@0 34@0 35@0 ]  32 -> [ 8@0 10@0 11@0 ]  36 -> [ 28@0 29@0 30@0 31@0 ]  53 -> [ 0@0 1@0 2@0 3@0 ]  ], output requests = [ 0 -> [ 53@0 ]  1 -> [ 53@0 ]  2 -> [ 53@0 ]  3 -> [ 53@0 ]  8 -> [ 32@0 ]  10 -> [ 32@0 ]  11 -> [ 32@0 ]  28 -> [ 36@0 ]  29 -> [ 36@0 ]  30 -> [ 36@0 ]  31 -> [ 36@0 ]  33 -> [ 21@0 ]  34 -> [ 21@0 ]  35 -> [ 21@0 ]  44 -> [ 8@0 ]  46 -> [ 8@0 ]  47 -> [ 8@0 ]  56 -> [ 3@0 ]  57 -> [ 3@0 ]  58 -> [ 3@0 ]  59 -> [ 3@0 ]  ].
28 | network_0/router_level3_510/vc_allocator | Input grants = [ 3 -> 56  8 -> 44  21 -> 33  32 -> 10  36 -> 28  53 -> 0  ], output grants = [ 0 -> 53  10 -> 32  28 -> 36  33 -> 21  44 -> 8  56 -> 3  ].
28 | network_0/router_level3_510 | Assigning VC 0 at output 0 to VC 1 at input 13.
28 | network_0/router_level3_510 | Beginning crossbar traversal for flit 6 from input 8.0 to output 2.0.
28 | network_0/router_level3_510 | Beginning crossbar traversal for flit 5 from input 9.0 to output 3.0.
28 | network_0/router_level3_510 | Beginning crossbar traversal for flit 7 from input 12.0 to output 1.0.
28 | network_0/router_level3_510 | Beginning crossbar traversal for flit 3 from input 13.0 to output 6.0.
28 | network_0/router_level3_510 | Beginning crossbar traversal for flit 4 from input 14.0 to output 4.0.
28 | network_0/router_level3_510 | Beginning crossbar traversal for flit 2 from input 15.0 to output 7.0.
28 | network_0/router_level3_510 | Completed VC allocation for VC 1 at input 13 (front: 8).
28 | network_0/router_level3_510 |   Acquiring assigned VC 0 at output 0.
28 | network_0/router_level3_510/buf_13/vc_1 | Changing state from vc_alloc to active.
28 | network_0/router_level3_510 | Completed crossbar traversal for flit 6 from input 8.0 to output 2.0.
28 | network_0/router_level3_510 | Buffering flit 6 at output 2.
28 | network_0/router_level3_510 | Completed crossbar traversal for flit 5 from input 9.0 to output 3.0.
28 | network_0/router_level3_510 | Buffering flit 5 at output 3.
28 | network_0/router_level3_510 | Completed crossbar traversal for flit 7 from input 12.0 to output 1.0.
28 | network_0/router_level3_510 | Buffering flit 7 at output 1.
28 | network_0/router_level3_510 | Completed crossbar traversal for flit 3 from input 13.0 to output 6.0.
28 | network_0/router_level3_510 | Buffering flit 3 at output 6.
28 | network_0/router_level3_510 | Completed crossbar traversal for flit 4 from input 14.0 to output 4.0.
28 | network_0/router_level3_510 | Buffering flit 4 at output 4.
28 | network_0/router_level3_510 | Completed crossbar traversal for flit 2 from input 15.0 to output 7.0.
28 | network_0/router_level3_510 | Buffering flit 2 at output 7.
28 | network_0/router_level3_511 | Beginning crossbar traversal for flit 1 from input 10.0 to output 2.0.
28 | network_0/router_level3_511 | Completed crossbar traversal for flit 1 from input 10.0 to output 2.0.
28 | network_0/router_level3_511 | Buffering flit 1 at output 2.
28 | network_0/router_level3_509 | Sending flit 9 to channel at output 5.
28 | network_0/router_level3_510 | Sending flit 7 to channel at output 1.
28 | network_0/router_level3_510 | Sending flit 6 to channel at output 2.
28 | network_0/router_level3_510 | Sending flit 5 to channel at output 3.
28 | network_0/router_level3_510 | Sending flit 4 to channel at output 4.
28 | network_0/router_level3_510 | Sending flit 3 to channel at output 6.
28 | network_0/router_level3_510 | Sending flit 2 to channel at output 7.
28 | network_0/router_level3_511 | Sending flit 1 to channel at output 2.
29 | network_0/network_0_fchan_egress4077 | Beginning channel traversal for flit 9 with delay 1.
29 | network_0/network_0_fchan_egress4081 | Beginning channel traversal for flit 7 with delay 1.
29 | network_0/network_0_fchan_egress4082 | Beginning channel traversal for flit 6 with delay 1.
29 | network_0/network_0_fchan_egress4083 | Beginning channel traversal for flit 5 with delay 1.
29 | network_0/network_0_fchan_egress4084 | Beginning channel traversal for flit 4 with delay 1.
29 | network_0/network_0_fchan_egress4086 | Beginning channel traversal for flit 3 with delay 1.
29 | network_0/network_0_fchan_egress4087 | Beginning channel traversal for flit 2 with delay 1.
29 | network_0/network_0_fchan_egress4090 | Beginning channel traversal for flit 1 with delay 1.
29 | network_0/router_level3_509 | Beginning switch allocation for VC 1 at input 11 (front: 10).
29 | network_0/router_level3_509 |   Requesting output 4.0 (non-spec, pri: 0).
29 | network_0/router_level3_509/sw_allocator | Input requests = [ 0 -> [ 13@0 ]  1 -> [ 13@0 14@0 ]  2 -> [ 15@0 ]  3 -> [ 8@0 ]  4 -> [ 11@0 ]  5 -> [ 10@0 11@0 14@0 ]  6 -> [ 13@0 ]  7 -> [ 9@0 ]  11 -> [ 4@0 ]  12 -> [ 0@0 ]  ], output requests = [ 0 -> [ 12@0 ]  4 -> [ 11@0 ]  8 -> [ 3@0 ]  9 -> [ 7@0 ]  10 -> [ 5@0 ]  11 -> [ 4@0 5@0 ]  13 -> [ 0@0 1@0 6@0 ]  14 -> [ 1@0 5@0 ]  15 -> [ 2@0 ]  ].
29 | network_0/router_level3_509/sw_allocator | Input grants = [ 2 -> 15  3 -> 8  4 -> 11  5 -> 14  6 -> 13  7 -> 9  11 -> 4  12 -> 0  ], output grants = [ 0 -> 12  4 -> 11  8 -> 3  9 -> 7  11 -> 4  13 -> 6  14 -> 5  15 -> 2  ].
29 | network_0/router_level3_509 | Assigning output 4.0 to VC 1 at input 11.0.
29 | network_0/router_level3_509 | Completed switch allocation for VC 1 at input 11 (front: 10).
29 | network_0/router_level3_509 |   Scheduling switch connection from input 11.0 to output 4.0.
29 | network_0/router_level3_510 | Beginning switch allocation for VC 1 at input 13 (front: 8).
29 | network_0/router_level3_510 |   Requesting output 0.0 (non-spec, pri: 0).
29 | network_0/router_level3_510/sw_allocator | Input requests = [ 0 -> [ 14@0 ]  2 -> [ 11@0 ]  5 -> [ 8@0 ]  7 -> [ 10@0 ]  8 -> [ 2@0 ]  9 -> [ 7@0 ]  13 -> [ 0@0 ]  ], output requests = [ 0 -> [ 13@0 ]  2 -> [ 8@0 ]  7 -> [ 9@0 ]  8 -> [ 5@0 ]  10 -> [ 7@0 ]  11 -> [ 2@0 ]  14 -> [ 0@0 ]  ].
29 | network_0/router_level3_510/sw_allocator | Input grants = [ 0 -> 14  2 -> 11  5 -> 8  7 -> 10  8 -> 2  9 -> 7  13 -> 0  ], output grants = [ 0 -> 13  2 -> 8  7 -> 9  8 -> 5  10 -> 7  11 -> 2  14 -> 0  ].
29 | network_0/router_level3_510 | Assigning output 0.0 to VC 1 at input 13.0.
29 | network_0/router_level3_510 | Completed switch allocation for VC 1 at input 13 (front: 8).
29 | network_0/router_level3_510 |   Scheduling switch connection from input 13.0 to output 0.0.
29 | network_0/network_0_fchan_egress4077 | Completed channel traversal for flit 9.
29 | network_0/network_0_fchan_egress4081 | Completed channel traversal for flit 7.
29 | network_0/network_0_fchan_egress4082 | Completed channel traversal for flit 6.
29 | network_0/network_0_fchan_egress4083 | Completed channel traversal for flit 5.
29 | network_0/network_0_fchan_egress4084 | Completed channel traversal for flit 4.
29 | network_0/network_0_fchan_egress4086 | Completed channel traversal for flit 3.
29 | network_0/network_0_fchan_egress4087 | Completed channel traversal for flit 2.
29 | network_0/network_0_fchan_egress4090 | Completed channel traversal for flit 1.
30 | node4077 | Ejecting flit 9 (packet 9) from VC 0.
30 | node4081 | Ejecting flit 7 (packet 7) from VC 0.
30 | node4082 | Ejecting flit 6 (packet 6) from VC 0.
30 | node4083 | Ejecting flit 5 (packet 5) from VC 0.
30 | node4084 | Ejecting flit 4 (packet 4) from VC 0.
30 | node4086 | Ejecting flit 3 (packet 3) from VC 0.
30 | node4087 | Ejecting flit 2 (packet 2) from VC 0.
30 | node4090 | Ejecting flit 1 (packet 1) from VC 0.
30 | node4077 | Injecting credit for VC 0 into subnet 0.
30 | node4077 | Retiring flit 9 (packet 9, src = 18, dest = 4077, hops = 7, flat = 30).
30 | node4077 | Retiring packet 9 (plat = 30, nlat = 30, frag = 0, src = 18, dest = 4077).
30 | node4081 | Injecting credit for VC 0 into subnet 0.
30 | node4081 | Retiring flit 7 (packet 7, src = 14, dest = 4081, hops = 7, flat = 30).
30 | node4081 | Retiring packet 7 (plat = 30, nlat = 30, frag = 0, src = 14, dest = 4081).
30 | node4082 | Injecting credit for VC 0 into subnet 0.
30 | node4082 | Retiring flit 6 (packet 6, src = 13, dest = 4082, hops = 7, flat = 30).
30 | node4082 | Retiring packet 6 (plat = 30, nlat = 30, frag = 0, src = 13, dest = 4082).
30 | node4083 | Injecting credit for VC 0 into subnet 0.
30 | node4083 | Retiring flit 5 (packet 5, src = 12, dest = 4083, hops = 7, flat = 30).
30 | node4083 | Retiring packet 5 (plat = 30, nlat = 30, frag = 0, src = 12, dest = 4083).
30 | node4084 | Injecting credit for VC 0 into subnet 0.
30 | node4084 | Retiring flit 4 (packet 4, src = 11, dest = 4084, hops = 7, flat = 30).
30 | node4084 | Retiring packet 4 (plat = 30, nlat = 30, frag = 0, src = 11, dest = 4084).
30 | node4086 | Injecting credit for VC 0 into subnet 0.
30 | node4086 | Retiring flit 3 (packet 3, src = 9, dest = 4086, hops = 7, flat = 30).
30 | node4086 | Retiring packet 3 (plat = 30, nlat = 30, frag = 0, src = 9, dest = 4086).
30 | node4087 | Injecting credit for VC 0 into subnet 0.
30 | node4087 | Retiring flit 2 (packet 2, src = 8, dest = 4087, hops = 7, flat = 30).
30 | node4087 | Retiring packet 2 (plat = 30, nlat = 30, frag = 0, src = 8, dest = 4087).
30 | node4090 | Injecting credit for VC 0 into subnet 0.
30 | node4090 | Retiring flit 1 (packet 1, src = 5, dest = 4090, hops = 7, flat = 30).
30 | node4090 | Retiring packet 1 (plat = 30, nlat = 30, frag = 0, src = 5, dest = 4090).
30 | network_0/router_level3_509 | Beginning crossbar traversal for flit 10 from input 11.0 to output 4.0.
30 | network_0/router_level3_509 | Completed crossbar traversal for flit 10 from input 11.0 to output 4.0.
30 | network_0/router_level3_509 | Buffering flit 10 at output 4.
30 | network_0/router_level3_510 | Beginning crossbar traversal for flit 8 from input 13.0 to output 0.0.
30 | network_0/router_level3_510 | Completed crossbar traversal for flit 8 from input 13.0 to output 0.0.
30 | network_0/router_level3_510 | Buffering flit 8 at output 0.
30 | network_0/router_level3_509 | Sending flit 10 to channel at output 4.
30 | network_0/router_level3_510 | Sending flit 8 to channel at output 0.
31 | network_0/network_0_fchan_egress4076 | Beginning channel traversal for flit 10 with delay 1.
31 | network_0/network_0_fchan_egress4080 | Beginning channel traversal for flit 8 with delay 1.
31 | network_0/network_0_fchan_egress4076 | Completed channel traversal for flit 10.
31 | network_0/network_0_fchan_egress4080 | Completed channel traversal for flit 8.
32 | node4076 | Ejecting flit 10 (packet 10) from VC 0.
32 | node4080 | Ejecting flit 8 (packet 8) from VC 0.
32 | node4076 | Injecting credit for VC 0 into subnet 0.
32 | node4076 | Retiring flit 10 (packet 10, src = 19, dest = 4076, hops = 7, flat = 32).
32 | node4076 | Retiring packet 10 (plat = 32, nlat = 32, frag = 0, src = 19, dest = 4076).
32 | node4080 | Injecting credit for VC 0 into subnet 0.
32 | node4080 | Retiring flit 8 (packet 8, src = 15, dest = 4080, hops = 7, flat = 32).
32 | node4080 | Retiring packet 8 (plat = 32, nlat = 32, frag = 0, src = 15, dest = 4080).
Class 0:
Packet latency average = 38.3093
	minimum = 30
	maximum = 104
Network latency average = 38.3093
	minimum = 30
	maximum = 104
Slowest packet = 322705
Flit latency average = 38.3093
	minimum = 30
	maximum = 104
Slowest flit = 322705
Fragmentation average = 0
	minimum = 0
	maximum = 0
Injected packet rate average = 0.499673
	minimum = 0.452 (at node 385)
	maximum = 0.562 (at node 3220)
Accepted packet rate average = 0.480275
	minimum = 0.427 (at node 200)
	maximum = 0.538 (at node 875)
Injected flit rate average = 0.499673
	minimum = 0.452 (at node 385)
	maximum = 0.562 (at node 3220)
Accepted flit rate average= 0.480275
	minimum = 0.427 (at node 200)
	maximum = 0.538 (at node 875)
Injected packet length average = 1
Accepted packet length average = 1
Total in-flight flits = 79455 (0 measured)
latency change    = 1
throughput change = 1
Class 0:
Packet latency average = 38.4907
	minimum = 30
	maximum = 107
Network latency average = 38.4907
	minimum = 30
	maximum = 107
Slowest packet = 2550284
Flit latency average = 38.4907
	minimum = 30
	maximum = 107
Slowest flit = 2550284
Fragmentation average = 0
	minimum = 0
	maximum = 0
Injected packet rate average = 0.49985
	minimum = 0.4615 (at node 3454)
	maximum = 0.5505 (at node 1522)
Accepted packet rate average = 0.490251
	minimum = 0.4505 (at node 641)
	maximum = 0.539 (at node 2573)
Injected flit rate average = 0.49985
	minimum = 0.4615 (at node 3454)
	maximum = 0.5505 (at node 1522)
Accepted flit rate average= 0.490251
	minimum = 0.4505 (at node 641)
	maximum = 0.539 (at node 2573)
Injected packet length average = 1
Accepted packet length average = 1
Total in-flight flits = 78639 (0 measured)
latency change    = 0.00471434
throughput change = 0.0203489
Class 0:
Packet latency average = 38.6314
	minimum = 30
	maximum = 110
Network latency average = 38.6314
	minimum = 30
	maximum = 110
Slowest packet = 5896155
Flit latency average = 38.6314
	minimum = 30
	maximum = 110
Slowest flit = 5896155
Fragmentation average = 0
	minimum = 0
	maximum = 0
Injected packet rate average = 0.499993
	minimum = 0.448 (at node 2668)
	maximum = 0.548 (at node 1776)
Accepted packet rate average = 0.499859
	minimum = 0.447 (at node 1427)
	maximum = 0.552 (at node 522)
Injected flit rate average = 0.499993
	minimum = 0.448 (at node 2668)
	maximum = 0.548 (at node 1776)
Accepted flit rate average= 0.499859
	minimum = 0.447 (at node 1427)
	maximum = 0.552 (at node 522)
Injected packet length average = 1
Accepted packet length average = 1
Total in-flight flits = 79187 (0 measured)
latency change    = 0.0036408
throughput change = 0.0192212
Warmed up ...Time used is 3000 cycles
Class 0:
Packet latency average = 38.5434
	minimum = 30
	maximum = 123
Network latency average = 38.5434
	minimum = 30
	maximum = 123
Slowest packet = 6511827
Flit latency average = 38.5855
	minimum = 30
	maximum = 123
Slowest flit = 6511827
Fragmentation average = 0
	minimum = 0
	maximum = 0
Injected packet rate average = 0.499688
	minimum = 0.441 (at node 1114)
	maximum = 0.555 (at node 1910)
Accepted packet rate average = 0.499737
	minimum = 0.439 (at node 2981)
	maximum = 0.553 (at node 2185)
Injected flit rate average = 0.499688
	minimum = 0.441 (at node 1114)
	maximum = 0.555 (at node 1910)
Accepted flit rate average= 0.499737
	minimum = 0.439 (at node 2981)
	maximum = 0.553 (at node 2185)
Injected packet length average = 1
Accepted packet length average = 1
Total in-flight flits = 78987 (78987 measured)
latency change    = 0.00228336
throughput change = 0.000243781
Class 0:
Packet latency average = 38.5884
	minimum = 30
	maximum = 123
Network latency average = 38.5884
	minimum = 30
	maximum = 123
Slowest packet = 6511827
Flit latency average = 38.6086
	minimum = 30
	maximum = 123
Slowest flit = 6511827
Fragmentation average = 0
	minimum = 0
	maximum = 0
Injected packet rate average = 0.499945
	minimum = 0.456 (at node 3448)
	maximum = 0.5395 (at node 3845)
Accepted packet rate average = 0.499992
	minimum = 0.461 (at node 647)
	maximum = 0.5395 (at node 1625)
Injected flit rate average = 0.499945
	minimum = 0.456 (at node 3448)
	maximum = 0.5395 (at node 3845)
Accepted flit rate average= 0.499992
	minimum = 0.461 (at node 647)
	maximum = 0.5395 (at node 1625)
Injected packet length average = 1
Accepted packet length average = 1
Total in-flight flits = 78805 (78805 measured)
latency change    = 0.00116645
throughput change = 0.000510018
Class 0:
Packet latency average = 38.6296
	minimum = 30
	maximum = 123
Network latency average = 38.6296
	minimum = 30
	maximum = 123
Slowest packet = 6511827
Flit latency average = 38.6425
	minimum = 30
	maximum = 123
Slowest flit = 6511827
Fragmentation average = 0
	minimum = 0
	maximum = 0
Injected packet rate average = 0.500058
	minimum = 0.464667 (at node 2136)
	maximum = 0.53 (at node 580)
Accepted packet rate average = 0.500066
	minimum = 0.464333 (at node 3835)
	maximum = 0.530333 (at node 1664)
Injected flit rate average = 0.500058
	minimum = 0.464667 (at node 2136)
	maximum = 0.53 (at node 580)
Accepted flit rate average= 0.500066
	minimum = 0.464333 (at node 3835)
	maximum = 0.530333 (at node 1664)
Injected packet length average = 1
Accepted packet length average = 1
Total in-flight flits = 79086 (79086 measured)
latency change    = 0.00106667
throughput change = 0.000148499
Draining all recorded packets ...
Draining remaining packets ...
Time taken is 6150 cycles
====== Overall Traffic Statistics ======
====== Traffic class 0 ======
Packet latency average = 38.642 (1 samples)
	minimum = 30 (1 samples)
	maximum = 123 (1 samples)
Network latency average = 38.642 (1 samples)
	minimum = 30 (1 samples)
	maximum = 123 (1 samples)
Flit latency average = 38.649 (1 samples)
	minimum = 30 (1 samples)
	maximum = 123 (1 samples)
Fragmentation average = 0 (1 samples)
	minimum = 0 (1 samples)
	maximum = 0 (1 samples)
Injected packet rate average = 0.500058 (1 samples)
	minimum = 0.464667 (1 samples)
	maximum = 0.53 (1 samples)
Accepted packet rate average = 0.500066 (1 samples)
	minimum = 0.464333 (1 samples)
	maximum = 0.530333 (1 samples)
Injected flit rate average = 0.500058 (1 samples)
	minimum = 0.464667 (1 samples)
	maximum = 0.53 (1 samples)
Accepted flit rate average = 0.500066 (1 samples)
	minimum = 0.464333 (1 samples)
	maximum = 0.530333 (1 samples)
Injected packet size average = 1 (1 samples)
Accepted packet size average = 1 (1 samples)
Hops average = 7 (1 samples)
Total run time 1121.44
