BEGIN Configuration File: examples/fattree_config_0.90_1_uniform
// $Id: dragonflyconfig 3555 2011-05-16 23:37:55Z dub $

// Copyright (c) 2007-2015, Trustees of The Leland Stanford Junior University
// All rights reserved.
//
// Redistribution and use in source and binary forms, with or without
// modification, are permitted provided that the following conditions are met:
//
// Redistributions of source code must retain the above copyright notice, this
// list of conditions and the following disclaimer.
// Redistributions in binary form must reproduce the above copyright notice,
// this list of conditions and the following disclaimer in the documentation
// and/or other materials provided with the distribution.
//
// THIS SOFTWARE IS PROVIDED BY THE COPYRIGHT HOLDERS AND CONTRIBUTORS "AS IS"
// AND ANY EXPRESS OR IMPLIED WARRANTIES, INCLUDING, BUT NOT LIMITED TO, THE
// IMPLIED WARRANTIES OF MERCHANTABILITY AND FITNESS FOR A PARTICULAR PURPOSE
// ARE DISCLAIMED. IN NO EVENT SHALL THE COPYRIGHT OWNER OR CONTRIBUTORS BE
// LIABLE FOR ANY DIRECT, INDIRECT, INCIDENTAL, SPECIAL, EXEMPLARY, OR
// CONSEQUENTIAL DAMAGES (INCLUDING, BUT NOT LIMITED TO, PROCUREMENT OF
// SUBSTITUTE GOODS OR SERVICES; LOSS OF USE, DATA, OR PROFITS; OR BUSINESS
// INTERRUPTION) HOWEVER CAUSED AND ON ANY THEORY OF LIABILITY, WHETHER IN
// CONTRACT, STRICT LIABILITY, OR TORT (INCLUDING NEGLIGENCE OR OTHERWISE)
// ARISING IN ANY WAY OUT OF THE USE OF THIS SOFTWARE, EVEN IF ADVISED OF THE
// POSSIBILITY OF SUCH DAMAGE.


hold_switch_for_packet=1;

vc_buf_size = 16;


wait_for_tail_credit = 0;

//
// Router architecture
//
vc_allocator = separable_input_first; 
sw_allocator = separable_input_first;
alloc_iters  = 1;

credit_delay   = 2;
routing_delay  = 0;
vc_alloc_delay = 1;
sw_alloc_delay = 1;
st_final_delay = 1;

input_speedup     = 1;
output_speedup    = 1;
internal_speedup  = 1.0;


warmup_periods = 3;
sim_count          = 1;

sample_period  = 1000;  

routing_function = nca;
num_vcs     = 4;

priority = none;
traffic = uniform;


injection_rate = 0.90;
packet_size = 1;
injection_rate_uses_flits=1;

topology = fattree;

k  = 8;
n  = 4;
t = 1;

watch_file = watchfile.txt;
watch_out=-;
stats_out = examples/fattree_config_0.90_1_uniform.m;

END Configuration File: examples/fattree_config_0.90_1_uniform
Fat Tree
 k = 8 levels = 4
 each switch - total radix =  16
 # of switches = 2048
 # of channels = 24576
 # of nodes ( size of network ) = 4096
 tapering factor = 1
0 | node1 | Enqueuing flit 1 (packet 1) at time 0.
0 | node2 | Enqueuing flit 2 (packet 2) at time 0.
0 | node3 | Enqueuing flit 3 (packet 3) at time 0.
0 | node4 | Enqueuing flit 4 (packet 4) at time 0.
0 | node5 | Enqueuing flit 5 (packet 5) at time 0.
0 | node6 | Enqueuing flit 6 (packet 6) at time 0.
0 | node7 | Enqueuing flit 7 (packet 7) at time 0.
0 | node8 | Enqueuing flit 8 (packet 8) at time 0.
0 | node9 | Enqueuing flit 9 (packet 9) at time 0.
0 | node10 | Enqueuing flit 10 (packet 10) at time 0.
0 | traffic_manager | Finding output VC for flit 1:
0 | traffic_manager |   Selected output VC 0.
0 | node1 | Generating lookahead routing info for flit 1.
0 | node1 | Injecting flit 1 into subnet 0 at time 0 with priority 0.
0 | traffic_manager | Finding output VC for flit 2:
0 | traffic_manager |   Selected output VC 0.
0 | node2 | Generating lookahead routing info for flit 2.
0 | node2 | Injecting flit 2 into subnet 0 at time 0 with priority 0.
0 | traffic_manager | Finding output VC for flit 3:
0 | traffic_manager |   Selected output VC 0.
0 | node3 | Generating lookahead routing info for flit 3.
0 | node3 | Injecting flit 3 into subnet 0 at time 0 with priority 0.
0 | traffic_manager | Finding output VC for flit 4:
0 | traffic_manager |   Selected output VC 0.
0 | node4 | Generating lookahead routing info for flit 4.
0 | node4 | Injecting flit 4 into subnet 0 at time 0 with priority 0.
0 | traffic_manager | Finding output VC for flit 5:
0 | traffic_manager |   Selected output VC 0.
0 | node5 | Generating lookahead routing info for flit 5.
0 | node5 | Injecting flit 5 into subnet 0 at time 0 with priority 0.
0 | traffic_manager | Finding output VC for flit 6:
0 | traffic_manager |   Selected output VC 0.
0 | node6 | Generating lookahead routing info for flit 6.
0 | node6 | Injecting flit 6 into subnet 0 at time 0 with priority 0.
0 | traffic_manager | Finding output VC for flit 7:
0 | traffic_manager |   Selected output VC 0.
0 | node7 | Generating lookahead routing info for flit 7.
0 | node7 | Injecting flit 7 into subnet 0 at time 0 with priority 0.
0 | traffic_manager | Finding output VC for flit 8:
0 | traffic_manager |   Selected output VC 0.
0 | node8 | Generating lookahead routing info for flit 8.
0 | node8 | Injecting flit 8 into subnet 0 at time 0 with priority 0.
0 | traffic_manager | Finding output VC for flit 9:
0 | traffic_manager |   Selected output VC 0.
0 | node9 | Generating lookahead routing info for flit 9.
0 | node9 | Injecting flit 9 into subnet 0 at time 0 with priority 0.
0 | traffic_manager | Finding output VC for flit 10:
0 | traffic_manager |   Selected output VC 0.
0 | node10 | Generating lookahead routing info for flit 10.
0 | node10 | Injecting flit 10 into subnet 0 at time 0 with priority 0.
1 | network_0/network_0_fchan_ingress1 | Beginning channel traversal for flit 1 with delay 1.
1 | network_0/network_0_fchan_ingress2 | Beginning channel traversal for flit 2 with delay 1.
1 | network_0/network_0_fchan_ingress3 | Beginning channel traversal for flit 3 with delay 1.
1 | network_0/network_0_fchan_ingress4 | Beginning channel traversal for flit 4 with delay 1.
1 | network_0/network_0_fchan_ingress5 | Beginning channel traversal for flit 5 with delay 1.
1 | network_0/network_0_fchan_ingress6 | Beginning channel traversal for flit 6 with delay 1.
1 | network_0/network_0_fchan_ingress7 | Beginning channel traversal for flit 7 with delay 1.
1 | network_0/network_0_fchan_ingress8 | Beginning channel traversal for flit 8 with delay 1.
1 | network_0/network_0_fchan_ingress9 | Beginning channel traversal for flit 9 with delay 1.
1 | network_0/network_0_fchan_ingress10 | Beginning channel traversal for flit 10 with delay 1.
1 | network_0/network_0_fchan_ingress1 | Completed channel traversal for flit 1.
1 | network_0/network_0_fchan_ingress2 | Completed channel traversal for flit 2.
1 | network_0/network_0_fchan_ingress3 | Completed channel traversal for flit 3.
1 | network_0/network_0_fchan_ingress4 | Completed channel traversal for flit 4.
1 | network_0/network_0_fchan_ingress5 | Completed channel traversal for flit 5.
1 | network_0/network_0_fchan_ingress6 | Completed channel traversal for flit 6.
1 | network_0/network_0_fchan_ingress7 | Completed channel traversal for flit 7.
1 | network_0/network_0_fchan_ingress8 | Completed channel traversal for flit 8.
1 | network_0/network_0_fchan_ingress9 | Completed channel traversal for flit 9.
1 | network_0/network_0_fchan_ingress10 | Completed channel traversal for flit 10.
2 | network_0/router_level3_0 | Received flit 1 from channel at input 1.
2 | network_0/router_level3_0 | Received flit 2 from channel at input 2.
2 | network_0/router_level3_0 | Received flit 3 from channel at input 3.
2 | network_0/router_level3_0 | Received flit 4 from channel at input 4.
2 | network_0/router_level3_0 | Received flit 5 from channel at input 5.
2 | network_0/router_level3_0 | Received flit 6 from channel at input 6.
2 | network_0/router_level3_0 | Received flit 7 from channel at input 7.
2 | network_0/router_level3_1 | Received flit 8 from channel at input 0.
2 | network_0/router_level3_1 | Received flit 9 from channel at input 1.
2 | network_0/router_level3_1 | Received flit 10 from channel at input 2.
2 | network_0/router_level3_0 | Adding flit 1 to VC 0 at input 1 (state: idle, empty).
2 | network_0/router_level3_0 | Using precomputed lookahead routing information for VC 0 at input 1 (front: 1).
2 | network_0/router_level3_0/buf_1/vc_0 | Changing state from idle to vc_alloc.
2 | network_0/router_level3_0 | Adding flit 2 to VC 0 at input 2 (state: idle, empty).
2 | network_0/router_level3_0 | Using precomputed lookahead routing information for VC 0 at input 2 (front: 2).
2 | network_0/router_level3_0/buf_2/vc_0 | Changing state from idle to vc_alloc.
2 | network_0/router_level3_0 | Adding flit 3 to VC 0 at input 3 (state: idle, empty).
2 | network_0/router_level3_0 | Using precomputed lookahead routing information for VC 0 at input 3 (front: 3).
2 | network_0/router_level3_0/buf_3/vc_0 | Changing state from idle to vc_alloc.
2 | network_0/router_level3_0 | Adding flit 4 to VC 0 at input 4 (state: idle, empty).
2 | network_0/router_level3_0 | Using precomputed lookahead routing information for VC 0 at input 4 (front: 4).
2 | network_0/router_level3_0/buf_4/vc_0 | Changing state from idle to vc_alloc.
2 | network_0/router_level3_0 | Adding flit 5 to VC 0 at input 5 (state: idle, empty).
2 | network_0/router_level3_0 | Using precomputed lookahead routing information for VC 0 at input 5 (front: 5).
2 | network_0/router_level3_0/buf_5/vc_0 | Changing state from idle to vc_alloc.
2 | network_0/router_level3_0 | Adding flit 6 to VC 0 at input 6 (state: idle, empty).
2 | network_0/router_level3_0 | Using precomputed lookahead routing information for VC 0 at input 6 (front: 6).
2 | network_0/router_level3_0/buf_6/vc_0 | Changing state from idle to vc_alloc.
2 | network_0/router_level3_0 | Adding flit 7 to VC 0 at input 7 (state: idle, empty).
2 | network_0/router_level3_0 | Using precomputed lookahead routing information for VC 0 at input 7 (front: 7).
2 | network_0/router_level3_0/buf_7/vc_0 | Changing state from idle to vc_alloc.
2 | network_0/router_level3_0 | Beginning VC allocation for VC 0 at input 1 (front: 1).
2 | network_0/router_level3_0 |   Requesting VC 0 at output 13 (in_pri: 0, out_pri: 0).
2 | network_0/router_level3_0 |   Requesting VC 1 at output 13 (in_pri: 0, out_pri: 0).
2 | network_0/router_level3_0 |   Requesting VC 2 at output 13 (in_pri: 0, out_pri: 0).
2 | network_0/router_level3_0 |   Requesting VC 3 at output 13 (in_pri: 0, out_pri: 0).
2 | network_0/router_level3_0 | Beginning VC allocation for VC 0 at input 2 (front: 2).
2 | network_0/router_level3_0 |   Requesting VC 0 at output 12 (in_pri: 0, out_pri: 0).
2 | network_0/router_level3_0 |   Requesting VC 1 at output 12 (in_pri: 0, out_pri: 0).
2 | network_0/router_level3_0 |   Requesting VC 2 at output 12 (in_pri: 0, out_pri: 0).
2 | network_0/router_level3_0 |   Requesting VC 3 at output 12 (in_pri: 0, out_pri: 0).
2 | network_0/router_level3_0 | Beginning VC allocation for VC 0 at input 3 (front: 3).
2 | network_0/router_level3_0 |   Requesting VC 0 at output 11 (in_pri: 0, out_pri: 0).
2 | network_0/router_level3_0 |   Requesting VC 1 at output 11 (in_pri: 0, out_pri: 0).
2 | network_0/router_level3_0 |   Requesting VC 2 at output 11 (in_pri: 0, out_pri: 0).
2 | network_0/router_level3_0 |   Requesting VC 3 at output 11 (in_pri: 0, out_pri: 0).
2 | network_0/router_level3_0 | Beginning VC allocation for VC 0 at input 4 (front: 4).
2 | network_0/router_level3_0 |   Requesting VC 0 at output 11 (in_pri: 0, out_pri: 0).
2 | network_0/router_level3_0 |   Requesting VC 1 at output 11 (in_pri: 0, out_pri: 0).
2 | network_0/router_level3_0 |   Requesting VC 2 at output 11 (in_pri: 0, out_pri: 0).
2 | network_0/router_level3_0 |   Requesting VC 3 at output 11 (in_pri: 0, out_pri: 0).
2 | network_0/router_level3_0 | Beginning VC allocation for VC 0 at input 5 (front: 5).
2 | network_0/router_level3_0 |   Requesting VC 0 at output 8 (in_pri: 0, out_pri: 0).
2 | network_0/router_level3_0 |   Requesting VC 1 at output 8 (in_pri: 0, out_pri: 0).
2 | network_0/router_level3_0 |   Requesting VC 2 at output 8 (in_pri: 0, out_pri: 0).
2 | network_0/router_level3_0 |   Requesting VC 3 at output 8 (in_pri: 0, out_pri: 0).
2 | network_0/router_level3_0 | Beginning VC allocation for VC 0 at input 6 (front: 6).
2 | network_0/router_level3_0 |   Requesting VC 0 at output 11 (in_pri: 0, out_pri: 0).
2 | network_0/router_level3_0 |   Requesting VC 1 at output 11 (in_pri: 0, out_pri: 0).
2 | network_0/router_level3_0 |   Requesting VC 2 at output 11 (in_pri: 0, out_pri: 0).
2 | network_0/router_level3_0 |   Requesting VC 3 at output 11 (in_pri: 0, out_pri: 0).
2 | network_0/router_level3_0 | Beginning VC allocation for VC 0 at input 7 (front: 7).
2 | network_0/router_level3_0 |   Requesting VC 0 at output 8 (in_pri: 0, out_pri: 0).
2 | network_0/router_level3_0 |   Requesting VC 1 at output 8 (in_pri: 0, out_pri: 0).
2 | network_0/router_level3_0 |   Requesting VC 2 at output 8 (in_pri: 0, out_pri: 0).
2 | network_0/router_level3_0 |   Requesting VC 3 at output 8 (in_pri: 0, out_pri: 0).
2 | network_0/router_level3_0/vc_allocator | Input requests = [ 0 -> [ 52@0 53@0 54@0 55@0 ]  4 -> [ 52@0 53@0 54@0 55@0 ]  8 -> [ 48@0 49@0 50@0 51@0 ]  12 -> [ 44@0 45@0 46@0 47@0 ]  16 -> [ 44@0 45@0 46@0 47@0 ]  20 -> [ 32@0 33@0 34@0 35@0 ]  24 -> [ 44@0 45@0 46@0 47@0 ]  28 -> [ 32@0 33@0 34@0 35@0 ]  ], output requests = [ 32 -> [ 20@0 28@0 ]  33 -> [ 20@0 28@0 ]  34 -> [ 20@0 28@0 ]  35 -> [ 20@0 28@0 ]  44 -> [ 12@0 16@0 24@0 ]  45 -> [ 12@0 16@0 24@0 ]  46 -> [ 12@0 16@0 24@0 ]  47 -> [ 12@0 16@0 24@0 ]  48 -> [ 8@0 ]  49 -> [ 8@0 ]  50 -> [ 8@0 ]  51 -> [ 8@0 ]  52 -> [ 0@0 4@0 ]  53 -> [ 0@0 4@0 ]  54 -> [ 0@0 4@0 ]  55 -> [ 0@0 4@0 ]  ].
2 | network_0/router_level3_0/vc_allocator | Input grants = [ 0 -> 52  8 -> 48  12 -> 44  20 -> 32  ], output grants = [ 32 -> 20  44 -> 12  48 -> 8  52 -> 0  ].
2 | network_0/router_level3_0 | VC allocation failed for VC 0 at input 1.
2 | network_0/router_level3_0 | Assigning VC 0 at output 12 to VC 0 at input 2.
2 | network_0/router_level3_0 | Assigning VC 0 at output 11 to VC 0 at input 3.
2 | network_0/router_level3_0 | VC allocation failed for VC 0 at input 4.
2 | network_0/router_level3_0 | Assigning VC 0 at output 8 to VC 0 at input 5.
2 | network_0/router_level3_0 | VC allocation failed for VC 0 at input 6.
2 | network_0/router_level3_0 | VC allocation failed for VC 0 at input 7.
2 | network_0/router_level3_0 | Completed VC allocation for VC 0 at input 1 (front: 1).
2 | network_0/router_level3_0 |   No output VC allocated.
2 | network_0/router_level3_0 | Completed VC allocation for VC 0 at input 2 (front: 2).
2 | network_0/router_level3_0 |   Acquiring assigned VC 0 at output 12.
2 | network_0/router_level3_0/buf_2/vc_0 | Changing state from vc_alloc to active.
2 | network_0/router_level3_0 | Completed VC allocation for VC 0 at input 3 (front: 3).
2 | network_0/router_level3_0 |   Acquiring assigned VC 0 at output 11.
2 | network_0/router_level3_0/buf_3/vc_0 | Changing state from vc_alloc to active.
2 | network_0/router_level3_0 | Completed VC allocation for VC 0 at input 4 (front: 4).
2 | network_0/router_level3_0 |   No output VC allocated.
2 | network_0/router_level3_0 | Completed VC allocation for VC 0 at input 5 (front: 5).
2 | network_0/router_level3_0 |   Acquiring assigned VC 0 at output 8.
2 | network_0/router_level3_0/buf_5/vc_0 | Changing state from vc_alloc to active.
2 | network_0/router_level3_0 | Completed VC allocation for VC 0 at input 6 (front: 6).
2 | network_0/router_level3_0 |   No output VC allocated.
2 | network_0/router_level3_0 | Completed VC allocation for VC 0 at input 7 (front: 7).
2 | network_0/router_level3_0 |   No output VC allocated.
2 | network_0/router_level3_1 | Adding flit 8 to VC 0 at input 0 (state: idle, empty).
2 | network_0/router_level3_1 | Using precomputed lookahead routing information for VC 0 at input 0 (front: 8).
2 | network_0/router_level3_1/buf_0/vc_0 | Changing state from idle to vc_alloc.
2 | network_0/router_level3_1 | Adding flit 9 to VC 0 at input 1 (state: idle, empty).
2 | network_0/router_level3_1 | Using precomputed lookahead routing information for VC 0 at input 1 (front: 9).
2 | network_0/router_level3_1/buf_1/vc_0 | Changing state from idle to vc_alloc.
2 | network_0/router_level3_1 | Adding flit 10 to VC 0 at input 2 (state: idle, empty).
2 | network_0/router_level3_1 | Using precomputed lookahead routing information for VC 0 at input 2 (front: 10).
2 | network_0/router_level3_1/buf_2/vc_0 | Changing state from idle to vc_alloc.
2 | network_0/router_level3_1 | Beginning VC allocation for VC 0 at input 0 (front: 8).
2 | network_0/router_level3_1 |   Requesting VC 0 at output 9 (in_pri: 0, out_pri: 0).
2 | network_0/router_level3_1 |   Requesting VC 1 at output 9 (in_pri: 0, out_pri: 0).
2 | network_0/router_level3_1 |   Requesting VC 2 at output 9 (in_pri: 0, out_pri: 0).
2 | network_0/router_level3_1 |   Requesting VC 3 at output 9 (in_pri: 0, out_pri: 0).
2 | network_0/router_level3_1 | Beginning VC allocation for VC 0 at input 1 (front: 9).
2 | network_0/router_level3_1 |   Requesting VC 0 at output 12 (in_pri: 0, out_pri: 0).
2 | network_0/router_level3_1 |   Requesting VC 1 at output 12 (in_pri: 0, out_pri: 0).
2 | network_0/router_level3_1 |   Requesting VC 2 at output 12 (in_pri: 0, out_pri: 0).
2 | network_0/router_level3_1 |   Requesting VC 3 at output 12 (in_pri: 0, out_pri: 0).
2 | network_0/router_level3_1 | Beginning VC allocation for VC 0 at input 2 (front: 10).
2 | network_0/router_level3_1 |   Requesting VC 0 at output 9 (in_pri: 0, out_pri: 0).
2 | network_0/router_level3_1 |   Requesting VC 1 at output 9 (in_pri: 0, out_pri: 0).
2 | network_0/router_level3_1 |   Requesting VC 2 at output 9 (in_pri: 0, out_pri: 0).
2 | network_0/router_level3_1 |   Requesting VC 3 at output 9 (in_pri: 0, out_pri: 0).
2 | network_0/router_level3_1/vc_allocator | Input requests = [ 0 -> [ 36@0 37@0 38@0 39@0 ]  4 -> [ 48@0 49@0 50@0 51@0 ]  8 -> [ 36@0 37@0 38@0 39@0 ]  12 -> [ 44@0 45@0 46@0 47@0 ]  16 -> [ 36@0 37@0 38@0 39@0 ]  20 -> [ 60@0 61@0 62@0 63@0 ]  24 -> [ 40@0 41@0 42@0 43@0 ]  28 -> [ 56@0 57@0 58@0 59@0 ]  ], output requests = [ 36 -> [ 0@0 8@0 16@0 ]  37 -> [ 0@0 8@0 16@0 ]  38 -> [ 0@0 8@0 16@0 ]  39 -> [ 0@0 8@0 16@0 ]  40 -> [ 24@0 ]  41 -> [ 24@0 ]  42 -> [ 24@0 ]  43 -> [ 24@0 ]  44 -> [ 12@0 ]  45 -> [ 12@0 ]  46 -> [ 12@0 ]  47 -> [ 12@0 ]  48 -> [ 4@0 ]  49 -> [ 4@0 ]  50 -> [ 4@0 ]  51 -> [ 4@0 ]  56 -> [ 28@0 ]  57 -> [ 28@0 ]  58 -> [ 28@0 ]  59 -> [ 28@0 ]  60 -> [ 20@0 ]  61 -> [ 20@0 ]  62 -> [ 20@0 ]  63 -> [ 20@0 ]  ].
2 | network_0/router_level3_1/vc_allocator | Input grants = [ 0 -> 36  4 -> 48  12 -> 44  20 -> 60  24 -> 40  28 -> 56  ], output grants = [ 36 -> 0  40 -> 24  44 -> 12  48 -> 4  56 -> 28  60 -> 20  ].
2 | network_0/router_level3_1 | Assigning VC 0 at output 9 to VC 0 at input 0.
2 | network_0/router_level3_1 | Assigning VC 0 at output 12 to VC 0 at input 1.
2 | network_0/router_level3_1 | VC allocation failed for VC 0 at input 2.
2 | network_0/router_level3_1 | Completed VC allocation for VC 0 at input 0 (front: 8).
2 | network_0/router_level3_1 |   Acquiring assigned VC 0 at output 9.
2 | network_0/router_level3_1/buf_0/vc_0 | Changing state from vc_alloc to active.
2 | network_0/router_level3_1 | Completed VC allocation for VC 0 at input 1 (front: 9).
2 | network_0/router_level3_1 |   Acquiring assigned VC 0 at output 12.
2 | network_0/router_level3_1/buf_1/vc_0 | Changing state from vc_alloc to active.
2 | network_0/router_level3_1 | Completed VC allocation for VC 0 at input 2 (front: 10).
2 | network_0/router_level3_1 |   No output VC allocated.
3 | network_0/router_level3_0 | Beginning VC allocation for VC 0 at input 1 (front: 1).
3 | network_0/router_level3_0 |   VC 0 at output 13 is in use by VC 0 at input 0 (front flit: 0).
3 | network_0/router_level3_0 |   Requesting VC 1 at output 13 (in_pri: 0, out_pri: 0).
3 | network_0/router_level3_0 |   Requesting VC 2 at output 13 (in_pri: 0, out_pri: 0).
3 | network_0/router_level3_0 |   Requesting VC 3 at output 13 (in_pri: 0, out_pri: 0).
3 | network_0/router_level3_0 | Beginning VC allocation for VC 0 at input 4 (front: 4).
3 | network_0/router_level3_0 |   VC 0 at output 11 is in use by VC 0 at input 3 (front flit: 3).
3 | network_0/router_level3_0 |   Requesting VC 1 at output 11 (in_pri: 0, out_pri: 0).
3 | network_0/router_level3_0 |   Requesting VC 2 at output 11 (in_pri: 0, out_pri: 0).
3 | network_0/router_level3_0 |   Requesting VC 3 at output 11 (in_pri: 0, out_pri: 0).
3 | network_0/router_level3_0 | Beginning VC allocation for VC 0 at input 6 (front: 6).
3 | network_0/router_level3_0 |   VC 0 at output 11 is in use by VC 0 at input 3 (front flit: 3).
3 | network_0/router_level3_0 |   Requesting VC 1 at output 11 (in_pri: 0, out_pri: 0).
3 | network_0/router_level3_0 |   Requesting VC 2 at output 11 (in_pri: 0, out_pri: 0).
3 | network_0/router_level3_0 |   Requesting VC 3 at output 11 (in_pri: 0, out_pri: 0).
3 | network_0/router_level3_0 | Beginning VC allocation for VC 0 at input 7 (front: 7).
3 | network_0/router_level3_0 |   VC 0 at output 8 is in use by VC 0 at input 5 (front flit: 5).
3 | network_0/router_level3_0 |   Requesting VC 1 at output 8 (in_pri: 0, out_pri: 0).
3 | network_0/router_level3_0 |   Requesting VC 2 at output 8 (in_pri: 0, out_pri: 0).
3 | network_0/router_level3_0 |   Requesting VC 3 at output 8 (in_pri: 0, out_pri: 0).
3 | network_0/router_level3_0/vc_allocator | Input requests = [ 1 -> [ 40@0 41@0 42@0 43@0 ]  4 -> [ 53@0 54@0 55@0 ]  5 -> [ 40@0 41@0 42@0 43@0 ]  9 -> [ 33@0 34@0 35@0 ]  13 -> [ 40@0 41@0 42@0 43@0 ]  16 -> [ 45@0 46@0 47@0 ]  17 -> [ 56@0 57@0 58@0 59@0 ]  21 -> [ 56@0 57@0 58@0 59@0 ]  24 -> [ 45@0 46@0 47@0 ]  25 -> [ 49@0 50@0 51@0 ]  28 -> [ 33@0 34@0 35@0 ]  29 -> [ 49@0 50@0 51@0 ]  ], output requests = [ 33 -> [ 9@0 28@0 ]  34 -> [ 9@0 28@0 ]  35 -> [ 9@0 28@0 ]  40 -> [ 1@0 5@0 13@0 ]  41 -> [ 1@0 5@0 13@0 ]  42 -> [ 1@0 5@0 13@0 ]  43 -> [ 1@0 5@0 13@0 ]  45 -> [ 16@0 24@0 ]  46 -> [ 16@0 24@0 ]  47 -> [ 16@0 24@0 ]  49 -> [ 25@0 29@0 ]  50 -> [ 25@0 29@0 ]  51 -> [ 25@0 29@0 ]  53 -> [ 4@0 ]  54 -> [ 4@0 ]  55 -> [ 4@0 ]  56 -> [ 17@0 21@0 ]  57 -> [ 17@0 21@0 ]  58 -> [ 17@0 21@0 ]  59 -> [ 17@0 21@0 ]  ].
3 | network_0/router_level3_0/vc_allocator | Input grants = [ 1 -> 40  4 -> 53  9 -> 33  16 -> 45  17 -> 56  25 -> 49  ], output grants = [ 33 -> 9  40 -> 1  45 -> 16  49 -> 25  53 -> 4  56 -> 17  ].
3 | network_0/router_level3_0 | Assigning VC 1 at output 13 to VC 0 at input 1.
3 | network_0/router_level3_0 | Assigning VC 1 at output 11 to VC 0 at input 4.
3 | network_0/router_level3_0 | VC allocation failed for VC 0 at input 6.
3 | network_0/router_level3_0 | VC allocation failed for VC 0 at input 7.
3 | network_0/router_level3_0 | Beginning switch allocation for VC 0 at input 2 (front: 2).
3 | network_0/router_level3_0 |   Requesting output 12.0 (non-spec, pri: 0).
3 | network_0/router_level3_0 | Beginning switch allocation for VC 0 at input 3 (front: 3).
3 | network_0/router_level3_0 |   Requesting output 11.0 (non-spec, pri: 0).
3 | network_0/router_level3_0 | Beginning switch allocation for VC 0 at input 5 (front: 5).
3 | network_0/router_level3_0 |   Requesting output 8.0 (non-spec, pri: 0).
3 | network_0/router_level3_0/sw_allocator | Input requests = [ 0 -> [ 13@0 ]  2 -> [ 12@0 ]  3 -> [ 11@0 ]  5 -> [ 8@0 ]  ], output requests = [ 8 -> [ 5@0 ]  11 -> [ 3@0 ]  12 -> [ 2@0 ]  13 -> [ 0@0 ]  ].
3 | network_0/router_level3_0/sw_allocator | Input grants = [ 0 -> 13  2 -> 12  3 -> 11  5 -> 8  ], output grants = [ 8 -> 5  11 -> 3  12 -> 2  13 -> 0  ].
3 | network_0/router_level3_0 | Assigning output 12.0 to VC 0 at input 2.0.
3 | network_0/router_level3_0 | Assigning output 11.0 to VC 0 at input 3.0.
3 | network_0/router_level3_0 | Assigning output 8.0 to VC 0 at input 5.0.
3 | network_0/router_level3_0 | Completed VC allocation for VC 0 at input 1 (front: 1).
3 | network_0/router_level3_0 |   Acquiring assigned VC 1 at output 13.
3 | network_0/router_level3_0/buf_1/vc_0 | Changing state from vc_alloc to active.
3 | network_0/router_level3_0 | Completed VC allocation for VC 0 at input 4 (front: 4).
3 | network_0/router_level3_0 |   Acquiring assigned VC 1 at output 11.
3 | network_0/router_level3_0/buf_4/vc_0 | Changing state from vc_alloc to active.
3 | network_0/router_level3_0 | Completed VC allocation for VC 0 at input 6 (front: 6).
3 | network_0/router_level3_0 |   No output VC allocated.
3 | network_0/router_level3_0 | Completed VC allocation for VC 0 at input 7 (front: 7).
3 | network_0/router_level3_0 |   No output VC allocated.
3 | network_0/router_level3_0 | Completed switch allocation for VC 0 at input 2 (front: 2).
3 | network_0/router_level3_0 |   Scheduling switch connection from input 2.0 to output 12.0.
3 | network_0/router_level3_0 | Updating lookahead routing information for flit 2.
3 | network_0/router_level3_0 | Completed switch allocation for VC 0 at input 3 (front: 3).
3 | network_0/router_level3_0 |   Scheduling switch connection from input 3.0 to output 11.0.
3 | network_0/router_level3_0 | Updating lookahead routing information for flit 3.
3 | network_0/router_level3_0 | Completed switch allocation for VC 0 at input 5 (front: 5).
3 | network_0/router_level3_0 |   Scheduling switch connection from input 5.0 to output 8.0.
3 | network_0/router_level3_0 | Updating lookahead routing information for flit 5.
3 | network_0/router_level3_1 | Beginning VC allocation for VC 0 at input 2 (front: 10).
3 | network_0/router_level3_1 |   VC 0 at output 9 is in use by VC 0 at input 0 (front flit: 8).
3 | network_0/router_level3_1 |   Requesting VC 1 at output 9 (in_pri: 0, out_pri: 0).
3 | network_0/router_level3_1 |   Requesting VC 2 at output 9 (in_pri: 0, out_pri: 0).
3 | network_0/router_level3_1 |   Requesting VC 3 at output 9 (in_pri: 0, out_pri: 0).
3 | network_0/router_level3_1/vc_allocator | Input requests = [ 1 -> [ 37@0 38@0 39@0 ]  5 -> [ 37@0 38@0 39@0 ]  8 -> [ 37@0 38@0 39@0 ]  16 -> [ 37@0 38@0 39@0 ]  17 -> [ 45@0 46@0 47@0 ]  21 -> [ 37@0 38@0 39@0 ]  25 -> [ 37@0 38@0 39@0 ]  ], output requests = [ 37 -> [ 1@0 5@0 8@0 16@0 21@0 25@0 ]  38 -> [ 1@0 5@0 8@0 16@0 21@0 25@0 ]  39 -> [ 1@0 5@0 8@0 16@0 21@0 25@0 ]  45 -> [ 17@0 ]  46 -> [ 17@0 ]  47 -> [ 17@0 ]  ].
3 | network_0/router_level3_1/vc_allocator | Input grants = [ 1 -> 37  17 -> 45  ], output grants = [ 37 -> 1  45 -> 17  ].
3 | network_0/router_level3_1 | VC allocation failed for VC 0 at input 2.
3 | network_0/router_level3_1 | Beginning switch allocation for VC 0 at input 0 (front: 8).
3 | network_0/router_level3_1 |   Requesting output 9.0 (non-spec, pri: 0).
3 | network_0/router_level3_1 | Beginning switch allocation for VC 0 at input 1 (front: 9).
3 | network_0/router_level3_1 |   Requesting output 12.0 (non-spec, pri: 0).
3 | network_0/router_level3_1/sw_allocator | Input requests = [ 0 -> [ 9@0 ]  1 -> [ 12@0 ]  3 -> [ 11@0 ]  5 -> [ 15@0 ]  6 -> [ 10@0 ]  7 -> [ 14@0 ]  ], output requests = [ 9 -> [ 0@0 ]  10 -> [ 6@0 ]  11 -> [ 3@0 ]  12 -> [ 1@0 ]  14 -> [ 7@0 ]  15 -> [ 5@0 ]  ].
3 | network_0/router_level3_1/sw_allocator | Input grants = [ 0 -> 9  1 -> 12  3 -> 11  5 -> 15  6 -> 10  7 -> 14  ], output grants = [ 9 -> 0  10 -> 6  11 -> 3  12 -> 1  14 -> 7  15 -> 5  ].
3 | network_0/router_level3_1 | Assigning output 9.0 to VC 0 at input 0.0.
3 | network_0/router_level3_1 | Assigning output 12.0 to VC 0 at input 1.0.
3 | network_0/router_level3_1 | Completed VC allocation for VC 0 at input 2 (front: 10).
3 | network_0/router_level3_1 |   No output VC allocated.
3 | network_0/router_level3_1 | Completed switch allocation for VC 0 at input 0 (front: 8).
3 | network_0/router_level3_1 |   Scheduling switch connection from input 0.0 to output 9.0.
3 | network_0/router_level3_1 | Updating lookahead routing information for flit 8.
3 | network_0/router_level3_1 | Completed switch allocation for VC 0 at input 1 (front: 9).
3 | network_0/router_level3_1 |   Scheduling switch connection from input 1.0 to output 12.0.
3 | network_0/router_level3_1 | Updating lookahead routing information for flit 9.
4 | network_0/router_level3_0 | Beginning VC allocation for VC 0 at input 6 (front: 6).
4 | network_0/router_level3_0 |   Requesting VC 0 at output 11 (in_pri: 0, out_pri: 0).
4 | network_0/router_level3_0 |   VC 1 at output 11 is in use by VC 0 at input 4 (front flit: 4).
4 | network_0/router_level3_0 |   Requesting VC 2 at output 11 (in_pri: 0, out_pri: 0).
4 | network_0/router_level3_0 |   Requesting VC 3 at output 11 (in_pri: 0, out_pri: 0).
4 | network_0/router_level3_0 | Beginning VC allocation for VC 0 at input 7 (front: 7).
4 | network_0/router_level3_0 |   Requesting VC 0 at output 8 (in_pri: 0, out_pri: 0).
4 | network_0/router_level3_0 |   VC 1 at output 8 is in use by VC 1 at input 2 (front flit: 3688).
4 | network_0/router_level3_0 |   Requesting VC 2 at output 8 (in_pri: 0, out_pri: 0).
4 | network_0/router_level3_0 |   Requesting VC 3 at output 8 (in_pri: 0, out_pri: 0).
4 | network_0/router_level3_0/vc_allocator | Input requests = [ 2 -> [ 48@0 50@0 51@0 ]  5 -> [ 41@0 42@0 43@0 ]  6 -> [ 41@0 42@0 43@0 ]  10 -> [ 52@0 54@0 55@0 ]  13 -> [ 41@0 42@0 43@0 ]  14 -> [ 52@0 54@0 55@0 ]  21 -> [ 57@0 58@0 59@0 ]  22 -> [ 44@0 46@0 47@0 ]  24 -> [ 44@0 46@0 47@0 ]  26 -> [ 41@0 42@0 43@0 ]  28 -> [ 32@0 34@0 35@0 ]  29 -> [ 48@0 50@0 51@0 ]  30 -> [ 57@0 58@0 59@0 ]  ], output requests = [ 32 -> [ 28@0 ]  34 -> [ 28@0 ]  35 -> [ 28@0 ]  41 -> [ 5@0 6@0 13@0 26@0 ]  42 -> [ 5@0 6@0 13@0 26@0 ]  43 -> [ 5@0 6@0 13@0 26@0 ]  44 -> [ 22@0 24@0 ]  46 -> [ 22@0 24@0 ]  47 -> [ 22@0 24@0 ]  48 -> [ 2@0 29@0 ]  50 -> [ 2@0 29@0 ]  51 -> [ 2@0 29@0 ]  52 -> [ 10@0 14@0 ]  54 -> [ 10@0 14@0 ]  55 -> [ 10@0 14@0 ]  57 -> [ 21@0 30@0 ]  58 -> [ 21@0 30@0 ]  59 -> [ 21@0 30@0 ]  ].
4 | network_0/router_level3_0/vc_allocator | Input grants = [ 5 -> 41  10 -> 52  21 -> 57  22 -> 44  28 -> 32  29 -> 48  ], output grants = [ 32 -> 28  41 -> 5  44 -> 22  48 -> 29  52 -> 10  57 -> 21  ].
4 | network_0/router_level3_0 | VC allocation failed for VC 0 at input 6.
4 | network_0/router_level3_0 | Assigning VC 0 at output 8 to VC 0 at input 7.
4 | network_0/router_level3_0 | Beginning switch allocation for VC 0 at input 1 (front: 1).
4 | network_0/router_level3_0 |   Requesting output 13.0 (non-spec, pri: 0).
4 | network_0/router_level3_0 | Beginning switch allocation for VC 0 at input 4 (front: 4).
4 | network_0/router_level3_0 |   Requesting output 11.0 (non-spec, pri: 0).
4 | network_0/router_level3_0/sw_allocator | Input requests = [ 0 -> [ 10@0 ]  1 -> [ 13@0 ]  2 -> [ 8@0 ]  4 -> [ 11@0 14@0 ]  6 -> [ 12@0 ]  ], output requests = [ 8 -> [ 2@0 ]  10 -> [ 0@0 ]  11 -> [ 4@0 ]  12 -> [ 6@0 ]  13 -> [ 1@0 ]  14 -> [ 4@0 ]  ].
4 | network_0/router_level3_0/sw_allocator | Input grants = [ 0 -> 10  1 -> 13  2 -> 8  4 -> 11  6 -> 12  ], output grants = [ 8 -> 2  10 -> 0  11 -> 4  12 -> 6  13 -> 1  ].
4 | network_0/router_level3_0 | Assigning output 13.0 to VC 0 at input 1.0.
4 | network_0/router_level3_0 | Assigning output 11.0 to VC 0 at input 4.0.
4 | network_0/router_level3_0 | Beginning crossbar traversal for flit 2 from input 2.0 to output 12.0.
4 | network_0/router_level3_0 | Beginning crossbar traversal for flit 3 from input 3.0 to output 11.0.
4 | network_0/router_level3_0 | Beginning crossbar traversal for flit 5 from input 5.0 to output 8.0.
4 | network_0/router_level3_0 | Completed VC allocation for VC 0 at input 6 (front: 6).
4 | network_0/router_level3_0 |   No output VC allocated.
4 | network_0/router_level3_0 | Completed VC allocation for VC 0 at input 7 (front: 7).
4 | network_0/router_level3_0 |   Acquiring assigned VC 0 at output 8.
4 | network_0/router_level3_0/buf_7/vc_0 | Changing state from vc_alloc to active.
4 | network_0/router_level3_0 | Completed switch allocation for VC 0 at input 1 (front: 1).
4 | network_0/router_level3_0 |   Scheduling switch connection from input 1.0 to output 13.0.
4 | network_0/router_level3_0 | Updating lookahead routing information for flit 1.
4 | network_0/router_level3_0 | Completed switch allocation for VC 0 at input 4 (front: 4).
4 | network_0/router_level3_0 |   Scheduling switch connection from input 4.0 to output 11.0.
4 | network_0/router_level3_0 | Updating lookahead routing information for flit 4.
4 | network_0/router_level3_0 | Completed crossbar traversal for flit 2 from input 2.0 to output 12.0.
4 | network_0/router_level3_0 | Buffering flit 2 at output 12.
4 | network_0/router_level3_0 | Completed crossbar traversal for flit 3 from input 3.0 to output 11.0.
4 | network_0/router_level3_0 | Buffering flit 3 at output 11.
4 | network_0/router_level3_0 | Completed crossbar traversal for flit 5 from input 5.0 to output 8.0.
4 | network_0/router_level3_0 | Buffering flit 5 at output 8.
4 | network_0/router_level3_1 | Beginning VC allocation for VC 0 at input 2 (front: 10).
4 | network_0/router_level3_1 |   Requesting VC 0 at output 9 (in_pri: 0, out_pri: 0).
4 | network_0/router_level3_1 |   VC 1 at output 9 is in use by VC 1 at input 0 (front flit: 3694).
4 | network_0/router_level3_1 |   Requesting VC 2 at output 9 (in_pri: 0, out_pri: 0).
4 | network_0/router_level3_1 |   Requesting VC 3 at output 9 (in_pri: 0, out_pri: 0).
4 | network_0/router_level3_1/vc_allocator | Input requests = [ 2 -> [ 36@0 38@0 39@0 ]  5 -> [ 36@0 38@0 39@0 ]  6 -> [ 48@0 49@0 50@0 51@0 ]  8 -> [ 36@0 38@0 39@0 ]  13 -> [ 48@0 49@0 50@0 51@0 ]  16 -> [ 36@0 38@0 39@0 ]  18 -> [ 40@0 41@0 42@0 43@0 ]  21 -> [ 36@0 38@0 39@0 ]  22 -> [ 36@0 38@0 39@0 ]  25 -> [ 36@0 38@0 39@0 ]  26 -> [ 52@0 53@0 54@0 55@0 ]  ], output requests = [ 36 -> [ 2@0 5@0 8@0 16@0 21@0 22@0 25@0 ]  38 -> [ 2@0 5@0 8@0 16@0 21@0 22@0 25@0 ]  39 -> [ 2@0 5@0 8@0 16@0 21@0 22@0 25@0 ]  40 -> [ 18@0 ]  41 -> [ 18@0 ]  42 -> [ 18@0 ]  43 -> [ 18@0 ]  48 -> [ 6@0 13@0 ]  49 -> [ 6@0 13@0 ]  50 -> [ 6@0 13@0 ]  51 -> [ 6@0 13@0 ]  52 -> [ 26@0 ]  53 -> [ 26@0 ]  54 -> [ 26@0 ]  55 -> [ 26@0 ]  ].
4 | network_0/router_level3_1/vc_allocator | Input grants = [ 2 -> 36  6 -> 48  18 -> 40  26 -> 52  ], output grants = [ 36 -> 2  40 -> 18  48 -> 6  52 -> 26  ].
4 | network_0/router_level3_1 | VC allocation failed for VC 0 at input 2.
4 | network_0/router_level3_1 | Beginning crossbar traversal for flit 8 from input 0.0 to output 9.0.
4 | network_0/router_level3_1 | Beginning crossbar traversal for flit 9 from input 1.0 to output 12.0.
4 | network_0/router_level3_1 | Completed VC allocation for VC 0 at input 2 (front: 10).
4 | network_0/router_level3_1 |   No output VC allocated.
4 | network_0/router_level3_1 | Completed crossbar traversal for flit 8 from input 0.0 to output 9.0.
4 | network_0/router_level3_1 | Buffering flit 8 at output 9.
4 | network_0/router_level3_1 | Completed crossbar traversal for flit 9 from input 1.0 to output 12.0.
4 | network_0/router_level3_1 | Buffering flit 9 at output 12.
4 | network_0/router_level3_0 | Sending flit 5 to channel at output 8.
4 | network_0/router_level3_0 | Sending flit 3 to channel at output 11.
4 | network_0/router_level3_0 | Sending flit 2 to channel at output 12.
4 | network_0/router_level3_1 | Sending flit 8 to channel at output 9.
4 | network_0/router_level3_1 | Sending flit 9 to channel at output 12.
5 | network_0/network_0_fchan_20480 | Beginning channel traversal for flit 5 with delay 1.
5 | network_0/network_0_fchan_20483 | Beginning channel traversal for flit 3 with delay 1.
5 | network_0/network_0_fchan_20484 | Beginning channel traversal for flit 2 with delay 1.
5 | network_0/network_0_fchan_20489 | Beginning channel traversal for flit 8 with delay 1.
5 | network_0/network_0_fchan_20492 | Beginning channel traversal for flit 9 with delay 1.
5 | network_0/router_level3_0 | Beginning VC allocation for VC 0 at input 6 (front: 6).
5 | network_0/router_level3_0 |   VC 0 at output 11 is in use by VC 2 at input 5 (front flit: 7387).
5 | network_0/router_level3_0 |   Requesting VC 1 at output 11 (in_pri: 0, out_pri: 0).
5 | network_0/router_level3_0 |   Requesting VC 2 at output 11 (in_pri: 0, out_pri: 0).
5 | network_0/router_level3_0 |   Requesting VC 3 at output 11 (in_pri: 0, out_pri: 0).
5 | network_0/router_level3_0/vc_allocator | Input requests = [ 2 -> [ 49@0 50@0 51@0 ]  3 -> [ 45@0 46@0 47@0 ]  6 -> [ 40@0 42@0 43@0 ]  7 -> [ 49@0 50@0 51@0 ]  13 -> [ 40@0 42@0 43@0 ]  14 -> [ 53@0 54@0 55@0 ]  15 -> [ 45@0 46@0 47@0 ]  18 -> [ 49@0 50@0 51@0 ]  23 -> [ 53@0 54@0 55@0 ]  24 -> [ 45@0 46@0 47@0 ]  26 -> [ 40@0 42@0 43@0 ]  27 -> [ 49@0 50@0 51@0 ]  30 -> [ 58@0 59@0 ]  31 -> [ 60@0 61@0 62@0 63@0 ]  ], output requests = [ 40 -> [ 6@0 13@0 26@0 ]  42 -> [ 6@0 13@0 26@0 ]  43 -> [ 6@0 13@0 26@0 ]  45 -> [ 3@0 15@0 24@0 ]  46 -> [ 3@0 15@0 24@0 ]  47 -> [ 3@0 15@0 24@0 ]  49 -> [ 2@0 7@0 18@0 27@0 ]  50 -> [ 2@0 7@0 18@0 27@0 ]  51 -> [ 2@0 7@0 18@0 27@0 ]  53 -> [ 14@0 23@0 ]  54 -> [ 14@0 23@0 ]  55 -> [ 14@0 23@0 ]  58 -> [ 30@0 ]  59 -> [ 30@0 ]  60 -> [ 31@0 ]  61 -> [ 31@0 ]  62 -> [ 31@0 ]  63 -> [ 31@0 ]  ].
5 | network_0/router_level3_0/vc_allocator | Input grants = [ 6 -> 40  14 -> 53  24 -> 45  27 -> 49  30 -> 58  31 -> 60  ], output grants = [ 40 -> 6  45 -> 24  49 -> 27  53 -> 14  58 -> 30  60 -> 31  ].
5 | network_0/router_level3_0 | Assigning VC 1 at output 11 to VC 0 at input 6.
5 | network_0/router_level3_0 | Beginning switch allocation for VC 0 at input 7 (front: 7).
5 | network_0/router_level3_0 |   Requesting output 8.0 (non-spec, pri: 0).
5 | network_0/router_level3_0/sw_allocator | Input requests = [ 1 -> [ 10@0 ]  2 -> [ 13@0 ]  4 -> [ 14@0 ]  5 -> [ 11@0 14@0 ]  7 -> [ 8@0 12@0 ]  ], output requests = [ 8 -> [ 7@0 ]  10 -> [ 1@0 ]  11 -> [ 5@0 ]  12 -> [ 7@0 ]  13 -> [ 2@0 ]  14 -> [ 4@0 5@0 ]  ].
5 | network_0/router_level3_0/sw_allocator | Input grants = [ 1 -> 10  2 -> 13  4 -> 14  5 -> 11  7 -> 8  ], output grants = [ 8 -> 7  10 -> 1  11 -> 5  13 -> 2  14 -> 4  ].
5 | network_0/router_level3_0 | Assigning output 8.0 to VC 0 at input 7.0.
5 | network_0/router_level3_0 | Beginning crossbar traversal for flit 1 from input 1.0 to output 13.0.
5 | network_0/router_level3_0 | Beginning crossbar traversal for flit 4 from input 4.0 to output 11.0.
5 | network_0/router_level3_0 | Completed VC allocation for VC 0 at input 6 (front: 6).
5 | network_0/router_level3_0 |   Acquiring assigned VC 1 at output 11.
5 | network_0/router_level3_0/buf_6/vc_0 | Changing state from vc_alloc to active.
5 | network_0/router_level3_0 | Completed switch allocation for VC 0 at input 7 (front: 7).
5 | network_0/router_level3_0 |   Scheduling switch connection from input 7.0 to output 8.0.
5 | network_0/router_level3_0 | Updating lookahead routing information for flit 7.
5 | network_0/router_level3_0 | Completed crossbar traversal for flit 1 from input 1.0 to output 13.0.
5 | network_0/router_level3_0 | Buffering flit 1 at output 13.
5 | network_0/router_level3_0 | Completed crossbar traversal for flit 4 from input 4.0 to output 11.0.
5 | network_0/router_level3_0 | Buffering flit 4 at output 11.
5 | network_0/router_level3_1 | Beginning VC allocation for VC 0 at input 2 (front: 10).
5 | network_0/router_level3_1 |   VC 0 at output 9 is in use by VC 2 at input 0 (front flit: 7390).
5 | network_0/router_level3_1 |   Requesting VC 1 at output 9 (in_pri: 0, out_pri: 0).
5 | network_0/router_level3_1 |   Requesting VC 2 at output 9 (in_pri: 0, out_pri: 0).
5 | network_0/router_level3_1 |   Requesting VC 3 at output 9 (in_pri: 0, out_pri: 0).
5 | network_0/router_level3_1/vc_allocator | Input requests = [ 3 -> [ 32@0 33@0 34@0 35@0 ]  5 -> [ 37@0 38@0 39@0 ]  7 -> [ 49@0 50@0 51@0 ]  8 -> [ 37@0 38@0 39@0 ]  9 -> [ 60@0 61@0 62@0 63@0 ]  13 -> [ 49@0 50@0 51@0 ]  14 -> [ 41@0 42@0 43@0 ]  16 -> [ 37@0 38@0 39@0 ]  19 -> [ 37@0 38@0 39@0 ]  21 -> [ 37@0 38@0 39@0 ]  22 -> [ 37@0 38@0 39@0 ]  23 -> [ 41@0 42@0 43@0 ]  25 -> [ 37@0 38@0 39@0 ]  27 -> [ 32@0 33@0 34@0 35@0 ]  29 -> [ 53@0 54@0 55@0 ]  ], output requests = [ 32 -> [ 3@0 27@0 ]  33 -> [ 3@0 27@0 ]  34 -> [ 3@0 27@0 ]  35 -> [ 3@0 27@0 ]  37 -> [ 5@0 8@0 16@0 19@0 21@0 22@0 25@0 ]  38 -> [ 5@0 8@0 16@0 19@0 21@0 22@0 25@0 ]  39 -> [ 5@0 8@0 16@0 19@0 21@0 22@0 25@0 ]  41 -> [ 14@0 23@0 ]  42 -> [ 14@0 23@0 ]  43 -> [ 14@0 23@0 ]  49 -> [ 7@0 13@0 ]  50 -> [ 7@0 13@0 ]  51 -> [ 7@0 13@0 ]  53 -> [ 29@0 ]  54 -> [ 29@0 ]  55 -> [ 29@0 ]  60 -> [ 9@0 ]  61 -> [ 9@0 ]  62 -> [ 9@0 ]  63 -> [ 9@0 ]  ].
5 | network_0/router_level3_1/vc_allocator | Input grants = [ 3 -> 32  5 -> 37  7 -> 49  9 -> 60  14 -> 41  29 -> 53  ], output grants = [ 32 -> 3  37 -> 5  41 -> 14  49 -> 7  53 -> 29  60 -> 9  ].
5 | network_0/router_level3_1 | VC allocation failed for VC 0 at input 2.
5 | network_0/router_level3_1 | Completed VC allocation for VC 0 at input 2 (front: 10).
5 | network_0/router_level3_1 |   No output VC allocated.
5 | network_0/network_0_fchan_20480 | Completed channel traversal for flit 5.
5 | network_0/network_0_fchan_20483 | Completed channel traversal for flit 3.
5 | network_0/network_0_fchan_20484 | Completed channel traversal for flit 2.
5 | network_0/network_0_fchan_20489 | Completed channel traversal for flit 8.
5 | network_0/network_0_fchan_20492 | Completed channel traversal for flit 9.
5 | network_0/router_level3_0 | Sending flit 4 to channel at output 11.
5 | network_0/router_level3_0 | Sending flit 1 to channel at output 13.
6 | network_0/network_0_fchan_20483 | Beginning channel traversal for flit 4 with delay 1.
6 | network_0/network_0_fchan_20485 | Beginning channel traversal for flit 1 with delay 1.
6 | network_0/router_level2_0 | Received flit 5 from channel at input 0.
6 | network_0/router_level2_1 | Received flit 8 from channel at input 1.
6 | network_0/router_level2_3 | Received flit 3 from channel at input 0.
6 | network_0/router_level2_4 | Received flit 2 from channel at input 0.
6 | network_0/router_level2_4 | Received flit 9 from channel at input 1.
6 | network_0/router_level2_0 | Adding flit 5 to VC 0 at input 0 (state: idle, empty).
6 | network_0/router_level2_0 | Using precomputed lookahead routing information for VC 0 at input 0 (front: 5).
6 | network_0/router_level2_0/buf_0/vc_0 | Changing state from idle to vc_alloc.
6 | network_0/router_level2_0 | Beginning VC allocation for VC 0 at input 0 (front: 5).
6 | network_0/router_level2_0 |   Requesting VC 0 at output 10 (in_pri: 0, out_pri: 0).
6 | network_0/router_level2_0 |   Requesting VC 1 at output 10 (in_pri: 0, out_pri: 0).
6 | network_0/router_level2_0 |   Requesting VC 2 at output 10 (in_pri: 0, out_pri: 0).
6 | network_0/router_level2_0 |   Requesting VC 3 at output 10 (in_pri: 0, out_pri: 0).
6 | network_0/router_level2_0/vc_allocator | Input requests = [ 0 -> [ 40@0 41@0 42@0 43@0 ]  8 -> [ 48@0 49@0 50@0 51@0 ]  12 -> [ 40@0 41@0 42@0 43@0 ]  16 -> [ 48@0 49@0 50@0 51@0 ]  20 -> [ 52@0 53@0 54@0 55@0 ]  28 -> [ 60@0 61@0 62@0 63@0 ]  ], output requests = [ 40 -> [ 0@0 12@0 ]  41 -> [ 0@0 12@0 ]  42 -> [ 0@0 12@0 ]  43 -> [ 0@0 12@0 ]  48 -> [ 8@0 16@0 ]  49 -> [ 8@0 16@0 ]  50 -> [ 8@0 16@0 ]  51 -> [ 8@0 16@0 ]  52 -> [ 20@0 ]  53 -> [ 20@0 ]  54 -> [ 20@0 ]  55 -> [ 20@0 ]  60 -> [ 28@0 ]  61 -> [ 28@0 ]  62 -> [ 28@0 ]  63 -> [ 28@0 ]  ].
6 | network_0/router_level2_0/vc_allocator | Input grants = [ 0 -> 40  8 -> 48  20 -> 52  28 -> 60  ], output grants = [ 40 -> 0  48 -> 8  52 -> 20  60 -> 28  ].
6 | network_0/router_level2_0 | Assigning VC 0 at output 10 to VC 0 at input 0.
6 | network_0/router_level2_0 | Completed VC allocation for VC 0 at input 0 (front: 5).
6 | network_0/router_level2_0 |   Acquiring assigned VC 0 at output 10.
6 | network_0/router_level2_0/buf_0/vc_0 | Changing state from vc_alloc to active.
6 | network_0/router_level2_1 | Adding flit 8 to VC 0 at input 1 (state: idle, empty).
6 | network_0/router_level2_1 | Using precomputed lookahead routing information for VC 0 at input 1 (front: 8).
6 | network_0/router_level2_1/buf_1/vc_0 | Changing state from idle to vc_alloc.
6 | network_0/router_level2_1 | Beginning VC allocation for VC 0 at input 1 (front: 8).
6 | network_0/router_level2_1 |   Requesting VC 0 at output 8 (in_pri: 0, out_pri: 0).
6 | network_0/router_level2_1 |   Requesting VC 1 at output 8 (in_pri: 0, out_pri: 0).
6 | network_0/router_level2_1 |   Requesting VC 2 at output 8 (in_pri: 0, out_pri: 0).
6 | network_0/router_level2_1 |   Requesting VC 3 at output 8 (in_pri: 0, out_pri: 0).
6 | network_0/router_level2_1/vc_allocator | Input requests = [ 4 -> [ 32@0 33@0 34@0 35@0 ]  20 -> [ 60@0 61@0 62@0 63@0 ]  ], output requests = [ 32 -> [ 4@0 ]  33 -> [ 4@0 ]  34 -> [ 4@0 ]  35 -> [ 4@0 ]  60 -> [ 20@0 ]  61 -> [ 20@0 ]  62 -> [ 20@0 ]  63 -> [ 20@0 ]  ].
6 | network_0/router_level2_1/vc_allocator | Input grants = [ 4 -> 32  20 -> 60  ], output grants = [ 32 -> 4  60 -> 20  ].
6 | network_0/router_level2_1 | Assigning VC 0 at output 8 to VC 0 at input 1.
6 | network_0/router_level2_1 | Completed VC allocation for VC 0 at input 1 (front: 8).
6 | network_0/router_level2_1 |   Acquiring assigned VC 0 at output 8.
6 | network_0/router_level2_1/buf_1/vc_0 | Changing state from vc_alloc to active.
6 | network_0/router_level2_3 | Adding flit 3 to VC 0 at input 0 (state: idle, empty).
6 | network_0/router_level2_3 | Using precomputed lookahead routing information for VC 0 at input 0 (front: 3).
6 | network_0/router_level2_3/buf_0/vc_0 | Changing state from idle to vc_alloc.
6 | network_0/router_level2_3 | Beginning VC allocation for VC 0 at input 0 (front: 3).
6 | network_0/router_level2_3 |   Requesting VC 0 at output 8 (in_pri: 0, out_pri: 0).
6 | network_0/router_level2_3 |   Requesting VC 1 at output 8 (in_pri: 0, out_pri: 0).
6 | network_0/router_level2_3 |   Requesting VC 2 at output 8 (in_pri: 0, out_pri: 0).
6 | network_0/router_level2_3 |   Requesting VC 3 at output 8 (in_pri: 0, out_pri: 0).
6 | network_0/router_level2_3/vc_allocator | Input requests = [ 0 -> [ 32@0 33@0 34@0 35@0 ]  4 -> [ 44@0 45@0 46@0 47@0 ]  8 -> [ 36@0 37@0 38@0 39@0 ]  12 -> [ 36@0 37@0 38@0 39@0 ]  20 -> [ 44@0 45@0 46@0 47@0 ]  28 -> [ 44@0 45@0 46@0 47@0 ]  ], output requests = [ 32 -> [ 0@0 ]  33 -> [ 0@0 ]  34 -> [ 0@0 ]  35 -> [ 0@0 ]  36 -> [ 8@0 12@0 ]  37 -> [ 8@0 12@0 ]  38 -> [ 8@0 12@0 ]  39 -> [ 8@0 12@0 ]  44 -> [ 4@0 20@0 28@0 ]  45 -> [ 4@0 20@0 28@0 ]  46 -> [ 4@0 20@0 28@0 ]  47 -> [ 4@0 20@0 28@0 ]  ].
6 | network_0/router_level2_3/vc_allocator | Input grants = [ 0 -> 32  4 -> 44  8 -> 36  ], output grants = [ 32 -> 0  36 -> 8  44 -> 4  ].
6 | network_0/router_level2_3 | Assigning VC 0 at output 8 to VC 0 at input 0.
6 | network_0/router_level2_3 | Completed VC allocation for VC 0 at input 0 (front: 3).
6 | network_0/router_level2_3 |   Acquiring assigned VC 0 at output 8.
6 | network_0/router_level2_3/buf_0/vc_0 | Changing state from vc_alloc to active.
6 | network_0/router_level2_4 | Adding flit 2 to VC 0 at input 0 (state: idle, empty).
6 | network_0/router_level2_4 | Using precomputed lookahead routing information for VC 0 at input 0 (front: 2).
6 | network_0/router_level2_4/buf_0/vc_0 | Changing state from idle to vc_alloc.
6 | network_0/router_level2_4 | Adding flit 9 to VC 0 at input 1 (state: idle, empty).
6 | network_0/router_level2_4 | Using precomputed lookahead routing information for VC 0 at input 1 (front: 9).
6 | network_0/router_level2_4/buf_1/vc_0 | Changing state from idle to vc_alloc.
6 | network_0/router_level2_4 | Beginning VC allocation for VC 0 at input 0 (front: 2).
6 | network_0/router_level2_4 |   Requesting VC 0 at output 11 (in_pri: 0, out_pri: 0).
6 | network_0/router_level2_4 |   Requesting VC 1 at output 11 (in_pri: 0, out_pri: 0).
6 | network_0/router_level2_4 |   Requesting VC 2 at output 11 (in_pri: 0, out_pri: 0).
6 | network_0/router_level2_4 |   Requesting VC 3 at output 11 (in_pri: 0, out_pri: 0).
6 | network_0/router_level2_4 | Beginning VC allocation for VC 0 at input 1 (front: 9).
6 | network_0/router_level2_4 |   Requesting VC 0 at output 10 (in_pri: 0, out_pri: 0).
6 | network_0/router_level2_4 |   Requesting VC 1 at output 10 (in_pri: 0, out_pri: 0).
6 | network_0/router_level2_4 |   Requesting VC 2 at output 10 (in_pri: 0, out_pri: 0).
6 | network_0/router_level2_4 |   Requesting VC 3 at output 10 (in_pri: 0, out_pri: 0).
6 | network_0/router_level2_4/vc_allocator | Input requests = [ 0 -> [ 44@0 45@0 46@0 47@0 ]  4 -> [ 40@0 41@0 42@0 43@0 ]  16 -> [ 44@0 45@0 46@0 47@0 ]  20 -> [ 52@0 53@0 54@0 55@0 ]  24 -> [ 52@0 53@0 54@0 55@0 ]  ], output requests = [ 40 -> [ 4@0 ]  41 -> [ 4@0 ]  42 -> [ 4@0 ]  43 -> [ 4@0 ]  44 -> [ 0@0 16@0 ]  45 -> [ 0@0 16@0 ]  46 -> [ 0@0 16@0 ]  47 -> [ 0@0 16@0 ]  52 -> [ 20@0 24@0 ]  53 -> [ 20@0 24@0 ]  54 -> [ 20@0 24@0 ]  55 -> [ 20@0 24@0 ]  ].
6 | network_0/router_level2_4/vc_allocator | Input grants = [ 0 -> 44  4 -> 40  20 -> 52  ], output grants = [ 40 -> 4  44 -> 0  52 -> 20  ].
6 | network_0/router_level2_4 | Assigning VC 0 at output 11 to VC 0 at input 0.
6 | network_0/router_level2_4 | Assigning VC 0 at output 10 to VC 0 at input 1.
6 | network_0/router_level2_4 | Completed VC allocation for VC 0 at input 0 (front: 2).
6 | network_0/router_level2_4 |   Acquiring assigned VC 0 at output 11.
6 | network_0/router_level2_4/buf_0/vc_0 | Changing state from vc_alloc to active.
6 | network_0/router_level2_4 | Completed VC allocation for VC 0 at input 1 (front: 9).
6 | network_0/router_level2_4 |   Acquiring assigned VC 0 at output 10.
6 | network_0/router_level2_4/buf_1/vc_0 | Changing state from vc_alloc to active.
6 | network_0/router_level3_0 | Beginning switch allocation for VC 0 at input 6 (front: 6).
6 | network_0/router_level3_0 |   Requesting output 11.0 (non-spec, pri: 0).
6 | network_0/router_level3_0/sw_allocator | Input requests = [ 1 -> [ 10@0 ]  3 -> [ 13@0 ]  5 -> [ 14@0 ]  6 -> [ 11@0 12@0 ]  7 -> [ 12@0 14@0 15@0 ]  ], output requests = [ 10 -> [ 1@0 ]  11 -> [ 6@0 ]  12 -> [ 6@0 7@0 ]  13 -> [ 3@0 ]  14 -> [ 5@0 7@0 ]  15 -> [ 7@0 ]  ].
6 | network_0/router_level3_0/sw_allocator | Input grants = [ 1 -> 10  3 -> 13  5 -> 14  6 -> 11  7 -> 12  ], output grants = [ 10 -> 1  11 -> 6  12 -> 7  13 -> 3  14 -> 5  ].
6 | network_0/router_level3_0 | Assigning output 11.0 to VC 0 at input 6.0.
6 | network_0/router_level3_0 | Beginning crossbar traversal for flit 7 from input 7.0 to output 8.0.
6 | network_0/router_level3_0 | Completed switch allocation for VC 0 at input 6 (front: 6).
6 | network_0/router_level3_0 |   Scheduling switch connection from input 6.0 to output 11.0.
6 | network_0/router_level3_0 | Updating lookahead routing information for flit 6.
6 | network_0/router_level3_0 | Completed crossbar traversal for flit 7 from input 7.0 to output 8.0.
6 | network_0/router_level3_0 | Buffering flit 7 at output 8.
6 | network_0/router_level3_1 | Beginning VC allocation for VC 0 at input 2 (front: 10).
6 | network_0/router_level3_1 |   Requesting VC 0 at output 9 (in_pri: 0, out_pri: 0).
6 | network_0/router_level3_1 |   VC 1 at output 9 is in use by VC 1 at input 1 (front flit: 3695).
6 | network_0/router_level3_1 |   Requesting VC 2 at output 9 (in_pri: 0, out_pri: 0).
6 | network_0/router_level3_1 |   Requesting VC 3 at output 9 (in_pri: 0, out_pri: 0).
6 | network_0/router_level3_1/vc_allocator | Input requests = [ 0 -> [ 36@0 38@0 39@0 ]  4 -> [ 56@0 57@0 58@0 59@0 ]  8 -> [ 36@0 38@0 39@0 ]  10 -> [ 52@0 54@0 55@0 ]  13 -> [ 48@0 50@0 51@0 ]  15 -> [ 36@0 38@0 39@0 ]  16 -> [ 36@0 38@0 39@0 ]  19 -> [ 36@0 38@0 39@0 ]  20 -> [ 40@0 42@0 43@0 ]  21 -> [ 36@0 38@0 39@0 ]  22 -> [ 36@0 38@0 39@0 ]  23 -> [ 40@0 42@0 43@0 ]  24 -> [ 61@0 62@0 63@0 ]  25 -> [ 36@0 38@0 39@0 ]  27 -> [ 33@0 34@0 35@0 ]  30 -> [ 61@0 62@0 63@0 ]  ], output requests = [ 33 -> [ 27@0 ]  34 -> [ 27@0 ]  35 -> [ 27@0 ]  36 -> [ 0@0 8@0 15@0 16@0 19@0 21@0 22@0 25@0 ]  38 -> [ 0@0 8@0 15@0 16@0 19@0 21@0 22@0 25@0 ]  39 -> [ 0@0 8@0 15@0 16@0 19@0 21@0 22@0 25@0 ]  40 -> [ 20@0 23@0 ]  42 -> [ 20@0 23@0 ]  43 -> [ 20@0 23@0 ]  48 -> [ 13@0 ]  50 -> [ 13@0 ]  51 -> [ 13@0 ]  52 -> [ 10@0 ]  54 -> [ 10@0 ]  55 -> [ 10@0 ]  56 -> [ 4@0 ]  57 -> [ 4@0 ]  58 -> [ 4@0 ]  59 -> [ 4@0 ]  61 -> [ 24@0 30@0 ]  62 -> [ 24@0 30@0 ]  63 -> [ 24@0 30@0 ]  ].
6 | network_0/router_level3_1/vc_allocator | Input grants = [ 0 -> 38  4 -> 56  8 -> 36  10 -> 52  13 -> 48  20 -> 40  24 -> 61  27 -> 33  ], output grants = [ 33 -> 27  36 -> 8  38 -> 0  40 -> 20  48 -> 13  52 -> 10  56 -> 4  61 -> 24  ].
6 | network_0/router_level3_1 | Assigning VC 0 at output 9 to VC 0 at input 2.
6 | network_0/router_level3_1 | Completed VC allocation for VC 0 at input 2 (front: 10).
6 | network_0/router_level3_1 |   Acquiring assigned VC 0 at output 9.
6 | network_0/router_level3_1/buf_2/vc_0 | Changing state from vc_alloc to active.
6 | network_0/network_0_fchan_20483 | Completed channel traversal for flit 4.
6 | network_0/network_0_fchan_20485 | Completed channel traversal for flit 1.
6 | network_0/router_level3_0 | Sending flit 7 to channel at output 8.
7 | network_0/network_0_fchan_20480 | Beginning channel traversal for flit 7 with delay 1.
7 | network_0/router_level2_3 | Received flit 4 from channel at input 0.
7 | network_0/router_level2_5 | Received flit 1 from channel at input 0.
7 | network_0/router_level2_0 | Beginning switch allocation for VC 0 at input 0 (front: 5).
7 | network_0/router_level2_0 |   Requesting output 10.0 (non-spec, pri: 0).
7 | network_0/router_level2_0/sw_allocator | Input requests = [ 0 -> [ 10@0 ]  2 -> [ 12@0 ]  5 -> [ 13@0 ]  7 -> [ 15@0 ]  ], output requests = [ 10 -> [ 0@0 ]  12 -> [ 2@0 ]  13 -> [ 5@0 ]  15 -> [ 7@0 ]  ].
7 | network_0/router_level2_0/sw_allocator | Input grants = [ 0 -> 10  2 -> 12  5 -> 13  7 -> 15  ], output grants = [ 10 -> 0  12 -> 2  13 -> 5  15 -> 7  ].
7 | network_0/router_level2_0 | Assigning output 10.0 to VC 0 at input 0.0.
7 | network_0/router_level2_0 | Completed switch allocation for VC 0 at input 0 (front: 5).
7 | network_0/router_level2_0 |   Scheduling switch connection from input 0.0 to output 10.0.
7 | network_0/router_level2_0 | Updating lookahead routing information for flit 5.
7 | network_0/router_level2_1 | Beginning switch allocation for VC 0 at input 1 (front: 8).
7 | network_0/router_level2_1 |   Requesting output 8.0 (non-spec, pri: 0).
7 | network_0/router_level2_1/sw_allocator | Input requests = [ 1 -> [ 8@0 ]  5 -> [ 15@0 ]  ], output requests = [ 8 -> [ 1@0 ]  15 -> [ 5@0 ]  ].
7 | network_0/router_level2_1/sw_allocator | Input grants = [ 1 -> 8  5 -> 15  ], output grants = [ 8 -> 1  15 -> 5  ].
7 | network_0/router_level2_1 | Assigning output 8.0 to VC 0 at input 1.0.
7 | network_0/router_level2_1 | Completed switch allocation for VC 0 at input 1 (front: 8).
7 | network_0/router_level2_1 |   Scheduling switch connection from input 1.0 to output 8.0.
7 | network_0/router_level2_1 | Updating lookahead routing information for flit 8.
7 | network_0/router_level2_3 | Adding flit 4 to VC 1 at input 0 (state: idle, empty).
7 | network_0/router_level2_3 | Using precomputed lookahead routing information for VC 1 at input 0 (front: 4).
7 | network_0/router_level2_3/buf_0/vc_1 | Changing state from idle to vc_alloc.
7 | network_0/router_level2_3 | Beginning VC allocation for VC 1 at input 0 (front: 4).
7 | network_0/router_level2_3 |   Requesting VC 0 at output 15 (in_pri: 0, out_pri: 0).
7 | network_0/router_level2_3 |   Requesting VC 1 at output 15 (in_pri: 0, out_pri: 0).
7 | network_0/router_level2_3 |   Requesting VC 2 at output 15 (in_pri: 0, out_pri: 0).
7 | network_0/router_level2_3 |   Requesting VC 3 at output 15 (in_pri: 0, out_pri: 0).
7 | network_0/router_level2_3/vc_allocator | Input requests = [ 1 -> [ 60@0 61@0 62@0 63@0 ]  5 -> [ 33@0 34@0 35@0 ]  9 -> [ 56@0 57@0 58@0 59@0 ]  12 -> [ 37@0 38@0 39@0 ]  20 -> [ 45@0 46@0 47@0 ]  21 -> [ 40@0 41@0 42@0 43@0 ]  24 -> [ 45@0 46@0 47@0 ]  28 -> [ 45@0 46@0 47@0 ]  29 -> [ 40@0 41@0 42@0 43@0 ]  ], output requests = [ 33 -> [ 5@0 ]  34 -> [ 5@0 ]  35 -> [ 5@0 ]  37 -> [ 12@0 ]  38 -> [ 12@0 ]  39 -> [ 12@0 ]  40 -> [ 21@0 29@0 ]  41 -> [ 21@0 29@0 ]  42 -> [ 21@0 29@0 ]  43 -> [ 21@0 29@0 ]  45 -> [ 20@0 24@0 28@0 ]  46 -> [ 20@0 24@0 28@0 ]  47 -> [ 20@0 24@0 28@0 ]  56 -> [ 9@0 ]  57 -> [ 9@0 ]  58 -> [ 9@0 ]  59 -> [ 9@0 ]  60 -> [ 1@0 ]  61 -> [ 1@0 ]  62 -> [ 1@0 ]  63 -> [ 1@0 ]  ].
7 | network_0/router_level2_3/vc_allocator | Input grants = [ 1 -> 60  5 -> 33  9 -> 56  12 -> 37  20 -> 45  21 -> 40  ], output grants = [ 33 -> 5  37 -> 12  40 -> 21  45 -> 20  56 -> 9  60 -> 1  ].
7 | network_0/router_level2_3 | Assigning VC 0 at output 15 to VC 1 at input 0.
7 | network_0/router_level2_3 | Beginning switch allocation for VC 0 at input 0 (front: 3).
7 | network_0/router_level2_3 |   Requesting output 8.0 (non-spec, pri: 0).
7 | network_0/router_level2_3/sw_allocator | Input requests = [ 0 -> [ 8@0 ]  1 -> [ 11@0 ]  2 -> [ 9@0 ]  ], output requests = [ 8 -> [ 0@0 ]  9 -> [ 2@0 ]  11 -> [ 1@0 ]  ].
7 | network_0/router_level2_3/sw_allocator | Input grants = [ 0 -> 8  1 -> 11  2 -> 9  ], output grants = [ 8 -> 0  9 -> 2  11 -> 1  ].
7 | network_0/router_level2_3 | Assigning output 8.0 to VC 0 at input 0.0.
7 | network_0/router_level2_3 | Completed VC allocation for VC 1 at input 0 (front: 4).
7 | network_0/router_level2_3 |   Acquiring assigned VC 0 at output 15.
7 | network_0/router_level2_3/buf_0/vc_1 | Changing state from vc_alloc to active.
7 | network_0/router_level2_3 | Completed switch allocation for VC 0 at input 0 (front: 3).
7 | network_0/router_level2_3 |   Scheduling switch connection from input 0.0 to output 8.0.
7 | network_0/router_level2_3 | Updating lookahead routing information for flit 3.
7 | network_0/router_level2_4 | Beginning switch allocation for VC 0 at input 0 (front: 2).
7 | network_0/router_level2_4 |   Requesting output 11.0 (non-spec, pri: 0).
7 | network_0/router_level2_4 | Beginning switch allocation for VC 0 at input 1 (front: 9).
7 | network_0/router_level2_4 |   Requesting output 10.0 (non-spec, pri: 0).
7 | network_0/router_level2_4/sw_allocator | Input requests = [ 0 -> [ 11@0 ]  1 -> [ 10@0 ]  5 -> [ 13@0 ]  ], output requests = [ 10 -> [ 1@0 ]  11 -> [ 0@0 ]  13 -> [ 5@0 ]  ].
7 | network_0/router_level2_4/sw_allocator | Input grants = [ 0 -> 11  1 -> 10  5 -> 13  ], output grants = [ 10 -> 1  11 -> 0  13 -> 5  ].
7 | network_0/router_level2_4 | Assigning output 11.0 to VC 0 at input 0.0.
7 | network_0/router_level2_4 | Assigning output 10.0 to VC 0 at input 1.0.
7 | network_0/router_level2_4 | Completed switch allocation for VC 0 at input 0 (front: 2).
7 | network_0/router_level2_4 |   Scheduling switch connection from input 0.0 to output 11.0.
7 | network_0/router_level2_4 | Updating lookahead routing information for flit 2.
7 | network_0/router_level2_4 | Completed switch allocation for VC 0 at input 1 (front: 9).
7 | network_0/router_level2_4 |   Scheduling switch connection from input 1.0 to output 10.0.
7 | network_0/router_level2_4 | Updating lookahead routing information for flit 9.
7 | network_0/router_level2_5 | Adding flit 1 to VC 1 at input 0 (state: idle, empty).
7 | network_0/router_level2_5 | Using precomputed lookahead routing information for VC 1 at input 0 (front: 1).
7 | network_0/router_level2_5/buf_0/vc_1 | Changing state from idle to vc_alloc.
7 | network_0/router_level2_5 | Beginning VC allocation for VC 1 at input 0 (front: 1).
7 | network_0/router_level2_5 |   Requesting VC 0 at output 15 (in_pri: 0, out_pri: 0).
7 | network_0/router_level2_5 |   Requesting VC 1 at output 15 (in_pri: 0, out_pri: 0).
7 | network_0/router_level2_5 |   Requesting VC 2 at output 15 (in_pri: 0, out_pri: 0).
7 | network_0/router_level2_5 |   Requesting VC 3 at output 15 (in_pri: 0, out_pri: 0).
7 | network_0/router_level2_5/vc_allocator | Input requests = [ 1 -> [ 60@0 61@0 62@0 63@0 ]  8 -> [ 37@0 38@0 39@0 ]  13 -> [ 28@0 29@0 30@0 31@0 ]  21 -> [ 37@0 38@0 39@0 ]  24 -> [ 37@0 38@0 39@0 ]  28 -> [ 57@0 58@0 59@0 ]  ], output requests = [ 28 -> [ 13@0 ]  29 -> [ 13@0 ]  30 -> [ 13@0 ]  31 -> [ 13@0 ]  37 -> [ 8@0 21@0 24@0 ]  38 -> [ 8@0 21@0 24@0 ]  39 -> [ 8@0 21@0 24@0 ]  57 -> [ 28@0 ]  58 -> [ 28@0 ]  59 -> [ 28@0 ]  60 -> [ 1@0 ]  61 -> [ 1@0 ]  62 -> [ 1@0 ]  63 -> [ 1@0 ]  ].
7 | network_0/router_level2_5/vc_allocator | Input grants = [ 1 -> 60  8 -> 37  13 -> 28  28 -> 57  ], output grants = [ 28 -> 13  37 -> 8  57 -> 28  60 -> 1  ].
7 | network_0/router_level2_5 | Assigning VC 0 at output 15 to VC 1 at input 0.
7 | network_0/router_level2_5 | Completed VC allocation for VC 1 at input 0 (front: 1).
7 | network_0/router_level2_5 |   Acquiring assigned VC 0 at output 15.
7 | network_0/router_level2_5/buf_0/vc_1 | Changing state from vc_alloc to active.
7 | network_0/router_level3_0 | Beginning crossbar traversal for flit 6 from input 6.0 to output 11.0.
7 | network_0/router_level3_0 | Completed crossbar traversal for flit 6 from input 6.0 to output 11.0.
7 | network_0/router_level3_0 | Buffering flit 6 at output 11.
7 | network_0/router_level3_1 | Beginning switch allocation for VC 0 at input 2 (front: 10).
7 | network_0/router_level3_1 |   Requesting output 9.0 (non-spec, pri: 0).
7 | network_0/router_level3_1/sw_allocator | Input requests = [ 0 -> [ 9@0 ]  1 -> [ 12@0 14@0 ]  2 -> [ 9@0 13@0 ]  3 -> [ 12@0 ]  5 -> [ 10@0 ]  6 -> [ 8@0 15@0 ]  ], output requests = [ 8 -> [ 6@0 ]  9 -> [ 0@0 2@0 ]  10 -> [ 5@0 ]  12 -> [ 1@0 3@0 ]  13 -> [ 2@0 ]  14 -> [ 1@0 ]  15 -> [ 6@0 ]  ].
7 | network_0/router_level3_1/sw_allocator | Input grants = [ 2 -> 9  3 -> 12  5 -> 10  6 -> 15  ], output grants = [ 9 -> 2  10 -> 5  12 -> 3  15 -> 6  ].
7 | network_0/router_level3_1 | Assigning output 9.0 to VC 0 at input 2.0.
7 | network_0/router_level3_1 | Completed switch allocation for VC 0 at input 2 (front: 10).
7 | network_0/router_level3_1 |   Scheduling switch connection from input 2.0 to output 9.0.
7 | network_0/router_level3_1 | Updating lookahead routing information for flit 10.
7 | network_0/network_0_fchan_20480 | Completed channel traversal for flit 7.
7 | network_0/router_level3_0 | Sending flit 6 to channel at output 11.
8 | network_0/network_0_fchan_20483 | Beginning channel traversal for flit 6 with delay 1.
8 | network_0/router_level2_0 | Received flit 7 from channel at input 0.
8 | network_0/router_level2_0 | Adding flit 7 to VC 0 at input 0 (state: idle, empty).
8 | network_0/router_level2_0 | Using precomputed lookahead routing information for VC 0 at input 0 (front: 7).
8 | network_0/router_level2_0/buf_0/vc_0 | Changing state from idle to vc_alloc.
8 | network_0/router_level2_0 | Beginning VC allocation for VC 0 at input 0 (front: 7).
8 | network_0/router_level2_0 |   Requesting VC 0 at output 15 (in_pri: 0, out_pri: 0).
8 | network_0/router_level2_0 |   VC 1 at output 15 is in use by VC 1 at input 4 (front flit: 3710).
8 | network_0/router_level2_0 |   Requesting VC 2 at output 15 (in_pri: 0, out_pri: 0).
8 | network_0/router_level2_0 |   Requesting VC 3 at output 15 (in_pri: 0, out_pri: 0).
8 | network_0/router_level2_0/vc_allocator | Input requests = [ 0 -> [ 60@0 62@0 63@0 ]  8 -> [ 60@0 62@0 63@0 ]  9 -> [ 40@0 42@0 43@0 ]  12 -> [ 40@0 42@0 43@0 ]  20 -> [ 52@0 53@0 54@0 55@0 ]  21 -> [ 40@0 42@0 43@0 ]  25 -> [ 37@0 38@0 39@0 ]  28 -> [ 45@0 46@0 47@0 ]  ], output requests = [ 37 -> [ 25@0 ]  38 -> [ 25@0 ]  39 -> [ 25@0 ]  40 -> [ 9@0 12@0 21@0 ]  42 -> [ 9@0 12@0 21@0 ]  43 -> [ 9@0 12@0 21@0 ]  45 -> [ 28@0 ]  46 -> [ 28@0 ]  47 -> [ 28@0 ]  52 -> [ 20@0 ]  53 -> [ 20@0 ]  54 -> [ 20@0 ]  55 -> [ 20@0 ]  60 -> [ 0@0 8@0 ]  62 -> [ 0@0 8@0 ]  63 -> [ 0@0 8@0 ]  ].
8 | network_0/router_level2_0/vc_allocator | Input grants = [ 0 -> 60  9 -> 40  20 -> 53  25 -> 37  28 -> 45  ], output grants = [ 37 -> 25  40 -> 9  45 -> 28  53 -> 20  60 -> 0  ].
8 | network_0/router_level2_0 | Assigning VC 0 at output 15 to VC 0 at input 0.
8 | network_0/router_level2_0 | Beginning crossbar traversal for flit 5 from input 0.0 to output 10.0.
8 | network_0/router_level2_0 | Completed VC allocation for VC 0 at input 0 (front: 7).
8 | network_0/router_level2_0 |   Acquiring assigned VC 0 at output 15.
8 | network_0/router_level2_0/buf_0/vc_0 | Changing state from vc_alloc to active.
8 | network_0/router_level2_0 | Completed crossbar traversal for flit 5 from input 0.0 to output 10.0.
8 | network_0/router_level2_0 | Buffering flit 5 at output 10.
8 | network_0/router_level2_1 | Beginning crossbar traversal for flit 8 from input 1.0 to output 8.0.
8 | network_0/router_level2_1 | Completed crossbar traversal for flit 8 from input 1.0 to output 8.0.
8 | network_0/router_level2_1 | Buffering flit 8 at output 8.
8 | network_0/router_level2_3 | Beginning switch allocation for VC 1 at input 0 (front: 4).
8 | network_0/router_level2_3 |   Requesting output 15.0 (non-spec, pri: 0).
8 | network_0/router_level2_3/sw_allocator | Input requests = [ 0 -> [ 15@0 ]  1 -> [ 8@0 ]  2 -> [ 14@0 ]  3 -> [ 9@0 ]  5 -> [ 10@0 11@0 ]  ], output requests = [ 8 -> [ 1@0 ]  9 -> [ 3@0 ]  10 -> [ 5@0 ]  11 -> [ 5@0 ]  14 -> [ 2@0 ]  15 -> [ 0@0 ]  ].
8 | network_0/router_level2_3/sw_allocator | Input grants = [ 0 -> 15  1 -> 8  2 -> 14  3 -> 9  5 -> 10  ], output grants = [ 8 -> 1  9 -> 3  10 -> 5  14 -> 2  15 -> 0  ].
8 | network_0/router_level2_3 | Assigning output 15.0 to VC 1 at input 0.0.
8 | network_0/router_level2_3 | Beginning crossbar traversal for flit 3 from input 0.0 to output 8.0.
8 | network_0/router_level2_3 | Completed switch allocation for VC 1 at input 0 (front: 4).
8 | network_0/router_level2_3 |   Scheduling switch connection from input 0.0 to output 15.0.
8 | network_0/router_level2_3 | Updating lookahead routing information for flit 4.
8 | network_0/router_level2_3 | Completed crossbar traversal for flit 3 from input 0.0 to output 8.0.
8 | network_0/router_level2_3 | Buffering flit 3 at output 8.
8 | network_0/router_level2_4 | Beginning crossbar traversal for flit 2 from input 0.0 to output 11.0.
8 | network_0/router_level2_4 | Beginning crossbar traversal for flit 9 from input 1.0 to output 10.0.
8 | network_0/router_level2_4 | Completed crossbar traversal for flit 2 from input 0.0 to output 11.0.
8 | network_0/router_level2_4 | Buffering flit 2 at output 11.
8 | network_0/router_level2_4 | Completed crossbar traversal for flit 9 from input 1.0 to output 10.0.
8 | network_0/router_level2_4 | Buffering flit 9 at output 10.
8 | network_0/router_level2_5 | Beginning switch allocation for VC 1 at input 0 (front: 1).
8 | network_0/router_level2_5 |   Requesting output 15.0 (non-spec, pri: 0).
8 | network_0/router_level2_5/sw_allocator | Input requests = [ 0 -> [ 15@0 ]  2 -> [ 9@0 ]  3 -> [ 7@0 ]  7 -> [ 14@0 ]  ], output requests = [ 7 -> [ 3@0 ]  9 -> [ 2@0 ]  14 -> [ 7@0 ]  15 -> [ 0@0 ]  ].
8 | network_0/router_level2_5/sw_allocator | Input grants = [ 0 -> 15  2 -> 9  3 -> 7  7 -> 14  ], output grants = [ 7 -> 3  9 -> 2  14 -> 7  15 -> 0  ].
8 | network_0/router_level2_5 | Assigning output 15.0 to VC 1 at input 0.0.
8 | network_0/router_level2_5 | Completed switch allocation for VC 1 at input 0 (front: 1).
8 | network_0/router_level2_5 |   Scheduling switch connection from input 0.0 to output 15.0.
8 | network_0/router_level2_5 | Updating lookahead routing information for flit 1.
8 | network_0/router_level3_1 | Beginning crossbar traversal for flit 10 from input 2.0 to output 9.0.
8 | network_0/router_level3_1 | Completed crossbar traversal for flit 10 from input 2.0 to output 9.0.
8 | network_0/router_level3_1 | Buffering flit 10 at output 9.
8 | network_0/network_0_fchan_20483 | Completed channel traversal for flit 6.
8 | network_0/router_level2_0 | Sending flit 5 to channel at output 10.
8 | network_0/router_level2_1 | Sending flit 8 to channel at output 8.
8 | network_0/router_level2_3 | Sending flit 3 to channel at output 8.
8 | network_0/router_level2_4 | Sending flit 9 to channel at output 10.
8 | network_0/router_level2_4 | Sending flit 2 to channel at output 11.
8 | network_0/router_level3_1 | Sending flit 10 to channel at output 9.
9 | network_0/network_0_fchan_12290 | Beginning channel traversal for flit 5 with delay 1.
9 | network_0/network_0_fchan_12296 | Beginning channel traversal for flit 8 with delay 1.
9 | network_0/network_0_fchan_12312 | Beginning channel traversal for flit 3 with delay 1.
9 | network_0/network_0_fchan_12322 | Beginning channel traversal for flit 9 with delay 1.
9 | network_0/network_0_fchan_12323 | Beginning channel traversal for flit 2 with delay 1.
9 | network_0/network_0_fchan_20489 | Beginning channel traversal for flit 10 with delay 1.
9 | network_0/router_level2_3 | Received flit 6 from channel at input 0.
9 | network_0/router_level2_0 | Beginning switch allocation for VC 0 at input 0 (front: 7).
9 | network_0/router_level2_0 |   Requesting output 15.0 (non-spec, pri: 0).
9 | network_0/router_level2_0/sw_allocator | Input requests = [ 0 -> [ 15@0 ]  2 -> [ 10@0 ]  4 -> [ 15@0 ]  5 -> [ 13@0 ]  6 -> [ 9@0 ]  7 -> [ 11@0 ]  ], output requests = [ 9 -> [ 6@0 ]  10 -> [ 2@0 ]  11 -> [ 7@0 ]  13 -> [ 5@0 ]  15 -> [ 0@0 4@0 ]  ].
9 | network_0/router_level2_0/sw_allocator | Input grants = [ 0 -> 15  2 -> 10  5 -> 13  6 -> 9  7 -> 11  ], output grants = [ 9 -> 6  10 -> 2  11 -> 7  13 -> 5  15 -> 0  ].
9 | network_0/router_level2_0 | Assigning output 15.0 to VC 0 at input 0.0.
9 | network_0/router_level2_0 | Completed switch allocation for VC 0 at input 0 (front: 7).
9 | network_0/router_level2_0 |   Scheduling switch connection from input 0.0 to output 15.0.
9 | network_0/router_level2_0 | Updating lookahead routing information for flit 7.
9 | network_0/router_level2_3 | Adding flit 6 to VC 1 at input 0 (state: idle, empty).
9 | network_0/router_level2_3 | Using precomputed lookahead routing information for VC 1 at input 0 (front: 6).
9 | network_0/router_level2_3/buf_0/vc_1 | Changing state from idle to vc_alloc.
9 | network_0/router_level2_3 | Beginning VC allocation for VC 1 at input 0 (front: 6).
9 | network_0/router_level2_3 |   Requesting VC 0 at output 14 (in_pri: 0, out_pri: 0).
9 | network_0/router_level2_3 |   Requesting VC 1 at output 14 (in_pri: 0, out_pri: 0).
9 | network_0/router_level2_3 |   Requesting VC 2 at output 14 (in_pri: 0, out_pri: 0).
9 | network_0/router_level2_3 |   Requesting VC 3 at output 14 (in_pri: 0, out_pri: 0).
9 | network_0/router_level2_3/vc_allocator | Input requests = [ 0 -> [ 46@0 47@0 ]  1 -> [ 56@0 57@0 58@0 59@0 ]  12 -> [ 37@0 38@0 39@0 ]  13 -> [ 60@0 61@0 62@0 63@0 ]  28 -> [ 46@0 47@0 ]  ], output requests = [ 37 -> [ 12@0 ]  38 -> [ 12@0 ]  39 -> [ 12@0 ]  46 -> [ 0@0 28@0 ]  47 -> [ 0@0 28@0 ]  56 -> [ 1@0 ]  57 -> [ 1@0 ]  58 -> [ 1@0 ]  59 -> [ 1@0 ]  60 -> [ 13@0 ]  61 -> [ 13@0 ]  62 -> [ 13@0 ]  63 -> [ 13@0 ]  ].
9 | network_0/router_level2_3/vc_allocator | Input grants = [ 0 -> 46  1 -> 56  12 -> 38  13 -> 60  ], output grants = [ 38 -> 12  46 -> 0  56 -> 1  60 -> 13  ].
9 | network_0/router_level2_3 | Assigning VC 0 at output 14 to VC 1 at input 0.
9 | network_0/router_level2_3 | Beginning crossbar traversal for flit 4 from input 0.0 to output 15.0.
9 | network_0/router_level2_3 | Completed VC allocation for VC 1 at input 0 (front: 6).
9 | network_0/router_level2_3 |   Acquiring assigned VC 0 at output 14.
9 | network_0/router_level2_3/buf_0/vc_1 | Changing state from vc_alloc to active.
9 | network_0/router_level2_3 | Completed crossbar traversal for flit 4 from input 0.0 to output 15.0.
9 | network_0/router_level2_3 | Buffering flit 4 at output 15.
9 | network_0/router_level2_5 | Beginning crossbar traversal for flit 1 from input 0.0 to output 15.0.
9 | network_0/router_level2_5 | Completed crossbar traversal for flit 1 from input 0.0 to output 15.0.
9 | network_0/router_level2_5 | Buffering flit 1 at output 15.
9 | network_0/network_0_fchan_12290 | Completed channel traversal for flit 5.
9 | network_0/network_0_fchan_12296 | Completed channel traversal for flit 8.
9 | network_0/network_0_fchan_12312 | Completed channel traversal for flit 3.
9 | network_0/network_0_fchan_12322 | Completed channel traversal for flit 9.
9 | network_0/network_0_fchan_12323 | Completed channel traversal for flit 2.
9 | network_0/network_0_fchan_20489 | Completed channel traversal for flit 10.
9 | network_0/router_level2_3 | Sending flit 4 to channel at output 15.
9 | network_0/router_level2_5 | Sending flit 1 to channel at output 15.
10 | network_0/network_0_fchan_12319 | Beginning channel traversal for flit 4 with delay 1.
10 | network_0/network_0_fchan_12335 | Beginning channel traversal for flit 1 with delay 1.
10 | network_0/router_level1_1 | Received flit 8 from channel at input 0.
10 | network_0/router_level1_3 | Received flit 3 from channel at input 0.
10 | network_0/router_level1_16 | Received flit 5 from channel at input 0.
10 | network_0/router_level1_20 | Received flit 9 from channel at input 0.
10 | network_0/router_level1_28 | Received flit 2 from channel at input 0.
10 | network_0/router_level2_1 | Received flit 10 from channel at input 1.
10 | network_0/router_level1_1 | Adding flit 8 to VC 0 at input 0 (state: idle, empty).
10 | network_0/router_level1_1 | Using precomputed lookahead routing information for VC 0 at input 0 (front: 8).
10 | network_0/router_level1_1/buf_0/vc_0 | Changing state from idle to vc_alloc.
10 | network_0/router_level1_1 | Beginning VC allocation for VC 0 at input 0 (front: 8).
10 | network_0/router_level1_1 |   Requesting VC 0 at output 11 (in_pri: 0, out_pri: 0).
10 | network_0/router_level1_1 |   Requesting VC 1 at output 11 (in_pri: 0, out_pri: 0).
10 | network_0/router_level1_1 |   Requesting VC 2 at output 11 (in_pri: 0, out_pri: 0).
10 | network_0/router_level1_1 |   Requesting VC 3 at output 11 (in_pri: 0, out_pri: 0).
10 | network_0/router_level1_1/vc_allocator | Input requests = [ 0 -> [ 44@0 45@0 46@0 47@0 ]  16 -> [ 48@0 49@0 50@0 51@0 ]  20 -> [ 40@0 41@0 42@0 43@0 ]  28 -> [ 56@0 57@0 58@0 59@0 ]  ], output requests = [ 40 -> [ 20@0 ]  41 -> [ 20@0 ]  42 -> [ 20@0 ]  43 -> [ 20@0 ]  44 -> [ 0@0 ]  45 -> [ 0@0 ]  46 -> [ 0@0 ]  47 -> [ 0@0 ]  48 -> [ 16@0 ]  49 -> [ 16@0 ]  50 -> [ 16@0 ]  51 -> [ 16@0 ]  56 -> [ 28@0 ]  57 -> [ 28@0 ]  58 -> [ 28@0 ]  59 -> [ 28@0 ]  ].
10 | network_0/router_level1_1/vc_allocator | Input grants = [ 0 -> 44  16 -> 48  20 -> 40  28 -> 56  ], output grants = [ 40 -> 20  44 -> 0  48 -> 16  56 -> 28  ].
10 | network_0/router_level1_1 | Assigning VC 0 at output 11 to VC 0 at input 0.
10 | network_0/router_level1_1 | Completed VC allocation for VC 0 at input 0 (front: 8).
10 | network_0/router_level1_1 |   Acquiring assigned VC 0 at output 11.
10 | network_0/router_level1_1/buf_0/vc_0 | Changing state from vc_alloc to active.
10 | network_0/router_level1_3 | Adding flit 3 to VC 0 at input 0 (state: idle, empty).
10 | network_0/router_level1_3 | Using precomputed lookahead routing information for VC 0 at input 0 (front: 3).
10 | network_0/router_level1_3/buf_0/vc_0 | Changing state from idle to vc_alloc.
10 | network_0/router_level1_3 | Beginning VC allocation for VC 0 at input 0 (front: 3).
10 | network_0/router_level1_3 |   Requesting VC 0 at output 8 (in_pri: 0, out_pri: 0).
10 | network_0/router_level1_3 |   Requesting VC 1 at output 8 (in_pri: 0, out_pri: 0).
10 | network_0/router_level1_3 |   Requesting VC 2 at output 8 (in_pri: 0, out_pri: 0).
10 | network_0/router_level1_3 |   Requesting VC 3 at output 8 (in_pri: 0, out_pri: 0).
10 | network_0/router_level1_3/vc_allocator | Input requests = [ 0 -> [ 32@0 33@0 34@0 35@0 ]  16 -> [ 32@0 33@0 34@0 35@0 ]  20 -> [ 52@0 53@0 54@0 55@0 ]  24 -> [ 56@0 57@0 58@0 59@0 ]  28 -> [ 32@0 33@0 34@0 35@0 ]  ], output requests = [ 32 -> [ 0@0 16@0 28@0 ]  33 -> [ 0@0 16@0 28@0 ]  34 -> [ 0@0 16@0 28@0 ]  35 -> [ 0@0 16@0 28@0 ]  52 -> [ 20@0 ]  53 -> [ 20@0 ]  54 -> [ 20@0 ]  55 -> [ 20@0 ]  56 -> [ 24@0 ]  57 -> [ 24@0 ]  58 -> [ 24@0 ]  59 -> [ 24@0 ]  ].
10 | network_0/router_level1_3/vc_allocator | Input grants = [ 0 -> 32  20 -> 52  24 -> 56  ], output grants = [ 32 -> 0  52 -> 20  56 -> 24  ].
10 | network_0/router_level1_3 | Assigning VC 0 at output 8 to VC 0 at input 0.
10 | network_0/router_level1_3 | Completed VC allocation for VC 0 at input 0 (front: 3).
10 | network_0/router_level1_3 |   Acquiring assigned VC 0 at output 8.
10 | network_0/router_level1_3/buf_0/vc_0 | Changing state from vc_alloc to active.
10 | network_0/router_level1_16 | Adding flit 5 to VC 0 at input 0 (state: idle, empty).
10 | network_0/router_level1_16 | Using precomputed lookahead routing information for VC 0 at input 0 (front: 5).
10 | network_0/router_level1_16/buf_0/vc_0 | Changing state from idle to vc_alloc.
10 | network_0/router_level1_16 | Beginning VC allocation for VC 0 at input 0 (front: 5).
10 | network_0/router_level1_16 |   Requesting VC 0 at output 15 (in_pri: 0, out_pri: 0).
10 | network_0/router_level1_16 |   Requesting VC 1 at output 15 (in_pri: 0, out_pri: 0).
10 | network_0/router_level1_16 |   Requesting VC 2 at output 15 (in_pri: 0, out_pri: 0).
10 | network_0/router_level1_16 |   Requesting VC 3 at output 15 (in_pri: 0, out_pri: 0).
10 | network_0/router_level1_16/vc_allocator | Input requests = [ 0 -> [ 60@0 61@0 62@0 63@0 ]  16 -> [ 60@0 61@0 62@0 63@0 ]  28 -> [ 60@0 61@0 62@0 63@0 ]  ], output requests = [ 60 -> [ 0@0 16@0 28@0 ]  61 -> [ 0@0 16@0 28@0 ]  62 -> [ 0@0 16@0 28@0 ]  63 -> [ 0@0 16@0 28@0 ]  ].
10 | network_0/router_level1_16/vc_allocator | Input grants = [ 0 -> 60  ], output grants = [ 60 -> 0  ].
10 | network_0/router_level1_16 | Assigning VC 0 at output 15 to VC 0 at input 0.
10 | network_0/router_level1_16 | Completed VC allocation for VC 0 at input 0 (front: 5).
10 | network_0/router_level1_16 |   Acquiring assigned VC 0 at output 15.
10 | network_0/router_level1_16/buf_0/vc_0 | Changing state from vc_alloc to active.
10 | network_0/router_level1_20 | Adding flit 9 to VC 0 at input 0 (state: idle, empty).
10 | network_0/router_level1_20 | Using precomputed lookahead routing information for VC 0 at input 0 (front: 9).
10 | network_0/router_level1_20/buf_0/vc_0 | Changing state from idle to vc_alloc.
10 | network_0/router_level1_20 | Beginning VC allocation for VC 0 at input 0 (front: 9).
10 | network_0/router_level1_20 |   Requesting VC 0 at output 7 (in_pri: 0, out_pri: 0).
10 | network_0/router_level1_20 |   Requesting VC 1 at output 7 (in_pri: 0, out_pri: 0).
10 | network_0/router_level1_20 |   Requesting VC 2 at output 7 (in_pri: 0, out_pri: 0).
10 | network_0/router_level1_20 |   Requesting VC 3 at output 7 (in_pri: 0, out_pri: 0).
10 | network_0/router_level1_20/vc_allocator | Input requests = [ 0 -> [ 28@0 29@0 30@0 31@0 ]  16 -> [ 36@0 37@0 38@0 39@0 ]  24 -> [ 56@0 57@0 58@0 59@0 ]  28 -> [ 60@0 61@0 62@0 63@0 ]  ], output requests = [ 28 -> [ 0@0 ]  29 -> [ 0@0 ]  30 -> [ 0@0 ]  31 -> [ 0@0 ]  36 -> [ 16@0 ]  37 -> [ 16@0 ]  38 -> [ 16@0 ]  39 -> [ 16@0 ]  56 -> [ 24@0 ]  57 -> [ 24@0 ]  58 -> [ 24@0 ]  59 -> [ 24@0 ]  60 -> [ 28@0 ]  61 -> [ 28@0 ]  62 -> [ 28@0 ]  63 -> [ 28@0 ]  ].
10 | network_0/router_level1_20/vc_allocator | Input grants = [ 0 -> 28  16 -> 36  24 -> 56  28 -> 60  ], output grants = [ 28 -> 0  36 -> 16  56 -> 24  60 -> 28  ].
10 | network_0/router_level1_20 | Assigning VC 0 at output 7 to VC 0 at input 0.
10 | network_0/router_level1_20 | Completed VC allocation for VC 0 at input 0 (front: 9).
10 | network_0/router_level1_20 |   Acquiring assigned VC 0 at output 7.
10 | network_0/router_level1_20/buf_0/vc_0 | Changing state from vc_alloc to active.
10 | network_0/router_level1_28 | Adding flit 2 to VC 0 at input 0 (state: idle, empty).
10 | network_0/router_level1_28 | Using precomputed lookahead routing information for VC 0 at input 0 (front: 2).
10 | network_0/router_level1_28/buf_0/vc_0 | Changing state from idle to vc_alloc.
10 | network_0/router_level1_28 | Beginning VC allocation for VC 0 at input 0 (front: 2).
10 | network_0/router_level1_28 |   Requesting VC 0 at output 11 (in_pri: 0, out_pri: 0).
10 | network_0/router_level1_28 |   Requesting VC 1 at output 11 (in_pri: 0, out_pri: 0).
10 | network_0/router_level1_28 |   Requesting VC 2 at output 11 (in_pri: 0, out_pri: 0).
[...]
29 | network_0/router_level3_226 | Completed VC allocation for VC 0 at input 8 (front: 7).
29 | network_0/router_level3_226 |   Acquiring assigned VC 0 at output 2.
29 | network_0/router_level3_226/buf_8/vc_0 | Changing state from vc_alloc to active.
29 | network_0/router_level3_247 | Beginning crossbar traversal for flit 1 from input 13.0 to output 2.0.
29 | network_0/router_level3_247 | Completed crossbar traversal for flit 1 from input 13.0 to output 2.0.
29 | network_0/router_level3_247 | Buffering flit 1 at output 2.
29 | network_0/router_level3_305 | Beginning switch allocation for VC 0 at input 11 (front: 4).
29 | network_0/router_level3_305 |   Requesting output 0.0 (non-spec, pri: 0).
29 | network_0/router_level3_305/sw_allocator | Input requests = [ 0 -> [ 10@0 11@0 ]  1 -> [ 10@0 11@0 14@0 ]  2 -> [ 15@0 ]  3 -> [ 13@0 15@0 ]  4 -> [ 3@0 11@0 ]  5 -> [ 8@0 9@0 12@0 ]  6 -> [ 8@0 12@0 14@0 ]  7 -> [ 9@0 11@0 15@0 ]  11 -> [ 0@0 ]  12 -> [ 1@0 ]  ], output requests = [ 0 -> [ 11@0 ]  1 -> [ 12@0 ]  3 -> [ 4@0 ]  8 -> [ 5@0 6@0 ]  9 -> [ 5@0 7@0 ]  10 -> [ 0@0 1@0 ]  11 -> [ 0@0 1@0 4@0 7@0 ]  12 -> [ 5@0 6@0 ]  13 -> [ 3@0 ]  14 -> [ 1@0 6@0 ]  15 -> [ 2@0 3@0 7@0 ]  ].
29 | network_0/router_level3_305/sw_allocator | Input grants = [ 0 -> 10  1 -> 11  2 -> 15  3 -> 13  4 -> 3  5 -> 12  7 -> 9  11 -> 0  12 -> 1  ], output grants = [ 0 -> 11  1 -> 12  3 -> 4  9 -> 7  10 -> 0  11 -> 1  12 -> 5  13 -> 3  15 -> 2  ].
29 | network_0/router_level3_305 | Assigning output 0.0 to VC 0 at input 11.0.
29 | network_0/router_level3_305 | Completed switch allocation for VC 0 at input 11 (front: 4).
29 | network_0/router_level3_305 |   Scheduling switch connection from input 11.0 to output 0.0.
29 | network_0/network_0_fchan_egress1209 | Completed channel traversal for flit 3.
29 | network_0/network_0_fchan_egress1779 | Completed channel traversal for flit 2.
29 | network_0/network_0_fchan_egress1795 | Completed channel traversal for flit 8.
29 | network_0/network_0_fchan_egress3886 | Completed channel traversal for flit 5.
29 | network_0/router_level2_171 | Sending flit 6 to channel at output 3.
29 | network_0/router_level3_247 | Sending flit 1 to channel at output 2.
30 | node1209 | Ejecting flit 3 (packet 3) from VC 0.
30 | node1779 | Ejecting flit 2 (packet 2) from VC 0.
30 | node1795 | Ejecting flit 8 (packet 8) from VC 0.
30 | node3886 | Ejecting flit 5 (packet 5) from VC 0.
30 | network_0/network_0_fchan_egress1978 | Beginning channel traversal for flit 1 with delay 1.
30 | network_0/network_0_fchan_17755 | Beginning channel traversal for flit 6 with delay 1.
30 | node1209 | Injecting credit for VC 0 into subnet 0.
30 | node1209 | Retiring flit 3 (packet 3, src = 3, dest = 1209, hops = 7, flat = 30).
30 | node1209 | Retiring packet 3 (plat = 30, nlat = 30, frag = 0, src = 3, dest = 1209).
30 | node1779 | Injecting credit for VC 0 into subnet 0.
30 | node1779 | Retiring flit 2 (packet 2, src = 2, dest = 1779, hops = 7, flat = 30).
30 | node1779 | Retiring packet 2 (plat = 30, nlat = 30, frag = 0, src = 2, dest = 1779).
30 | node1795 | Injecting credit for VC 0 into subnet 0.
30 | node1795 | Retiring flit 8 (packet 8, src = 8, dest = 1795, hops = 7, flat = 30).
30 | node1795 | Retiring packet 8 (plat = 30, nlat = 30, frag = 0, src = 8, dest = 1795).
30 | node3886 | Injecting credit for VC 0 into subnet 0.
30 | node3886 | Retiring flit 5 (packet 5, src = 5, dest = 3886, hops = 7, flat = 30).
30 | node3886 | Retiring packet 5 (plat = 30, nlat = 30, frag = 0, src = 5, dest = 3886).
30 | network_0/router_level2_129 | Beginning switch allocation for VC 0 at input 9 (front: 10).
30 | network_0/router_level2_129 |   Requesting output 1.0 (non-spec, pri: 0).
30 | network_0/router_level2_129/sw_allocator | Input requests = [ 0 -> [ 15@0 ]  1 -> [ 8@0 13@0 ]  2 -> [ 8@0 ]  3 -> [ 8@0 ]  7 -> [ 9@0 ]  9 -> [ 1@0 ]  10 -> [ 2@0 ]  11 -> [ 6@0 ]  ], output requests = [ 1 -> [ 9@0 ]  2 -> [ 10@0 ]  6 -> [ 11@0 ]  8 -> [ 1@0 2@0 3@0 ]  9 -> [ 7@0 ]  13 -> [ 1@0 ]  15 -> [ 0@0 ]  ].
30 | network_0/router_level2_129/sw_allocator | Input grants = [ 0 -> 15  1 -> 13  2 -> 8  7 -> 9  9 -> 1  10 -> 2  11 -> 6  ], output grants = [ 1 -> 9  2 -> 10  6 -> 11  8 -> 2  9 -> 7  13 -> 1  15 -> 0  ].
30 | network_0/router_level2_129 | Assigning output 1.0 to VC 0 at input 9.0.
30 | network_0/router_level2_129 | Completed switch allocation for VC 0 at input 9 (front: 10).
30 | network_0/router_level2_129 |   Scheduling switch connection from input 9.0 to output 1.0.
30 | network_0/router_level2_129 | Updating lookahead routing information for flit 10.
30 | network_0/router_level3_226 | Beginning switch allocation for VC 0 at input 8 (front: 7).
30 | network_0/router_level3_226 |   Requesting output 2.0 (non-spec, pri: 0).
30 | network_0/router_level3_226/sw_allocator | Input requests = [ 0 -> [ 8@0 12@0 ]  1 -> [ 9@0 14@0 ]  2 -> [ 10@0 13@0 ]  3 -> [ 10@0 15@0 ]  4 -> [ 9@0 10@0 15@0 ]  5 -> [ 9@0 11@0 13@0 ]  6 -> [ 8@0 12@0 ]  7 -> [ 8@0 11@0 14@0 ]  8 -> [ 2@0 ]  10 -> [ 0@0 5@0 ]  ], output requests = [ 0 -> [ 10@0 ]  2 -> [ 8@0 ]  5 -> [ 10@0 ]  8 -> [ 0@0 6@0 7@0 ]  9 -> [ 1@0 4@0 5@0 ]  10 -> [ 2@0 3@0 4@0 ]  11 -> [ 5@0 7@0 ]  12 -> [ 0@0 6@0 ]  13 -> [ 2@0 5@0 ]  14 -> [ 1@0 7@0 ]  15 -> [ 3@0 4@0 ]  ].
30 | network_0/router_level3_226/sw_allocator | Input grants = [ 0 -> 8  1 -> 9  2 -> 10  3 -> 15  5 -> 11  6 -> 12  8 -> 2  10 -> 5  ], output grants = [ 2 -> 8  5 -> 10  8 -> 0  9 -> 1  10 -> 2  11 -> 5  12 -> 6  15 -> 3  ].
30 | network_0/router_level3_226 | Assigning output 2.0 to VC 0 at input 8.0.
30 | network_0/router_level3_226 | Completed switch allocation for VC 0 at input 8 (front: 7).
30 | network_0/router_level3_226 |   Scheduling switch connection from input 8.0 to output 2.0.
30 | network_0/router_level3_305 | Beginning crossbar traversal for flit 4 from input 11.0 to output 0.0.
30 | network_0/router_level3_305 | Completed crossbar traversal for flit 4 from input 11.0 to output 0.0.
30 | network_0/router_level3_305 | Buffering flit 4 at output 0.
30 | network_0/network_0_fchan_egress1978 | Completed channel traversal for flit 1.
30 | network_0/network_0_fchan_17755 | Completed channel traversal for flit 6.
30 | network_0/router_level3_305 | Sending flit 4 to channel at output 0.
31 | node1978 | Ejecting flit 1 (packet 1) from VC 1.
31 | network_0/network_0_fchan_egress2440 | Beginning channel traversal for flit 4 with delay 1.
31 | network_0/router_level3_171 | Received flit 6 from channel at input 11.
31 | node1978 | Injecting credit for VC 1 into subnet 0.
31 | node1978 | Retiring flit 1 (packet 1, src = 1, dest = 1978, hops = 7, flat = 31).
31 | node1978 | Retiring packet 1 (plat = 31, nlat = 31, frag = 0, src = 1, dest = 1978).
31 | network_0/router_level2_129 | Beginning crossbar traversal for flit 10 from input 9.0 to output 1.0.
31 | network_0/router_level2_129 | Completed crossbar traversal for flit 10 from input 9.0 to output 1.0.
31 | network_0/router_level2_129 | Buffering flit 10 at output 1.
31 | network_0/router_level3_171 | Adding flit 6 to VC 0 at input 11 (state: idle, empty).
31 | network_0/router_level3_171 | Using precomputed lookahead routing information for VC 0 at input 11 (front: 6).
31 | network_0/router_level3_171/buf_11/vc_0 | Changing state from idle to vc_alloc.
31 | network_0/router_level3_171 | Beginning VC allocation for VC 0 at input 11 (front: 6).
31 | network_0/router_level3_171 |   Requesting VC 0 at output 2 (in_pri: 0, out_pri: 0).
31 | network_0/router_level3_171 |   VC 1 at output 2 is in use by VC 1 at input 13 (front flit: 7773).
31 | network_0/router_level3_171 |   Requesting VC 2 at output 2 (in_pri: 0, out_pri: 0).
31 | network_0/router_level3_171 |   Requesting VC 3 at output 2 (in_pri: 0, out_pri: 0).
31 | network_0/router_level3_171/vc_allocator | Input requests = [ 0 -> [ 35@0 ]  2 -> [ 42@0 43@0 ]  3 -> [ 46@0 ]  4 -> [ 37@0 ]  9 -> [ 42@0 43@0 ]  14 -> [ 46@0 ]  15 -> [ 35@0 ]  17 -> [ 46@0 ]  19 -> [ 35@0 ]  20 -> [ 57@0 ]  23 -> [ 52@0 53@0 54@0 55@0 ]  24 -> [ 57@0 ]  25 -> [ 50@0 51@0 ]  26 -> [ 57@0 ]  30 -> [ 46@0 ]  44 -> [ 8@0 10@0 11@0 ]  49 -> [ 5@0 6@0 7@0 ]  56 -> [ 17@0 18@0 19@0 ]  57 -> [ 13@0 14@0 15@0 ]  61 -> [ 20@0 22@0 23@0 ]  ], output requests = [ 5 -> [ 49@0 ]  6 -> [ 49@0 ]  7 -> [ 49@0 ]  8 -> [ 44@0 ]  10 -> [ 44@0 ]  11 -> [ 44@0 ]  13 -> [ 57@0 ]  14 -> [ 57@0 ]  15 -> [ 57@0 ]  17 -> [ 56@0 ]  18 -> [ 56@0 ]  19 -> [ 56@0 ]  20 -> [ 61@0 ]  22 -> [ 61@0 ]  23 -> [ 61@0 ]  35 -> [ 0@0 15@0 19@0 ]  37 -> [ 4@0 ]  42 -> [ 2@0 9@0 ]  43 -> [ 2@0 9@0 ]  46 -> [ 3@0 14@0 17@0 30@0 ]  50 -> [ 25@0 ]  51 -> [ 25@0 ]  52 -> [ 23@0 ]  53 -> [ 23@0 ]  54 -> [ 23@0 ]  55 -> [ 23@0 ]  57 -> [ 20@0 24@0 26@0 ]  ].
31 | network_0/router_level3_171/vc_allocator | Input grants = [ 2 -> 43  4 -> 37  9 -> 42  19 -> 35  20 -> 57  23 -> 53  25 -> 50  30 -> 46  44 -> 8  49 -> 5  56 -> 17  57 -> 13  61 -> 20  ], output grants = [ 5 -> 49  8 -> 44  13 -> 57  17 -> 56  20 -> 61  35 -> 19  37 -> 4  42 -> 9  43 -> 2  46 -> 30  50 -> 25  53 -> 23  57 -> 20  ].
31 | network_0/router_level3_171 | Assigning VC 0 at output 2 to VC 0 at input 11.
31 | network_0/router_level3_171 | Completed VC allocation for VC 0 at input 11 (front: 6).
31 | network_0/router_level3_171 |   Acquiring assigned VC 0 at output 2.
31 | network_0/router_level3_171/buf_11/vc_0 | Changing state from vc_alloc to active.
31 | network_0/router_level3_226 | Beginning crossbar traversal for flit 7 from input 8.0 to output 2.0.
31 | network_0/router_level3_226 | Completed crossbar traversal for flit 7 from input 8.0 to output 2.0.
31 | network_0/router_level3_226 | Buffering flit 7 at output 2.
31 | network_0/network_0_fchan_egress2440 | Completed channel traversal for flit 4.
31 | network_0/router_level2_129 | Sending flit 10 to channel at output 1.
31 | network_0/router_level3_226 | Sending flit 7 to channel at output 2.
32 | node2440 | Ejecting flit 4 (packet 4) from VC 0.
32 | network_0/network_0_fchan_egress1810 | Beginning channel traversal for flit 7 with delay 1.
32 | network_0/network_0_fchan_17417 | Beginning channel traversal for flit 10 with delay 1.
32 | node2440 | Injecting credit for VC 0 into subnet 0.
32 | node2440 | Retiring flit 4 (packet 4, src = 4, dest = 2440, hops = 7, flat = 32).
32 | node2440 | Retiring packet 4 (plat = 32, nlat = 32, frag = 0, src = 4, dest = 2440).
32 | network_0/router_level3_171 | Beginning switch allocation for VC 0 at input 11 (front: 6).
32 | network_0/router_level3_171 |   Requesting output 2.0 (non-spec, pri: 0).
32 | network_0/router_level3_171/sw_allocator | Input requests = [ 0 -> [ 8@0 10@0 ]  1 -> [ 8@0 9@0 14@0 ]  2 -> [ 10@0 11@0 ]  3 -> [ 11@0 ]  4 -> [ 8@0 14@0 ]  5 -> [ 9@0 13@0 14@0 ]  6 -> [ 12@0 ]  7 -> [ 11@0 12@0 15@0 ]  11 -> [ 2@0 ]  12 -> [ 1@0 ]  13 -> [ 4@0 ]  14 -> [ 3@0 4@0 ]  15 -> [ 5@0 ]  ], output requests = [ 1 -> [ 12@0 ]  2 -> [ 11@0 ]  3 -> [ 14@0 ]  4 -> [ 13@0 14@0 ]  5 -> [ 15@0 ]  8 -> [ 0@0 1@0 4@0 ]  9 -> [ 1@0 5@0 ]  10 -> [ 0@0 2@0 ]  11 -> [ 2@0 3@0 7@0 ]  12 -> [ 6@0 7@0 ]  13 -> [ 5@0 ]  14 -> [ 1@0 4@0 5@0 ]  15 -> [ 7@0 ]  ].
32 | network_0/router_level3_171/sw_allocator | Input grants = [ 0 -> 8  2 -> 11  4 -> 14  5 -> 9  7 -> 12  11 -> 2  12 -> 1  13 -> 4  14 -> 3  15 -> 5  ], output grants = [ 1 -> 12  2 -> 11  3 -> 14  4 -> 13  5 -> 15  8 -> 0  9 -> 5  11 -> 2  12 -> 7  14 -> 4  ].
32 | network_0/router_level3_171 | Assigning output 2.0 to VC 0 at input 11.0.
32 | network_0/router_level3_171 | Completed switch allocation for VC 0 at input 11 (front: 6).
32 | network_0/router_level3_171 |   Scheduling switch connection from input 11.0 to output 2.0.
32 | network_0/network_0_fchan_egress1810 | Completed channel traversal for flit 7.
32 | network_0/network_0_fchan_17417 | Completed channel traversal for flit 10.
33 | node1810 | Ejecting flit 7 (packet 7) from VC 0.
33 | network_0/router_level3_129 | Received flit 10 from channel at input 9.
33 | node1810 | Injecting credit for VC 0 into subnet 0.
33 | node1810 | Retiring flit 7 (packet 7, src = 7, dest = 1810, hops = 7, flat = 33).
33 | node1810 | Retiring packet 7 (plat = 33, nlat = 33, frag = 0, src = 7, dest = 1810).
33 | network_0/router_level3_129 | Adding flit 10 to VC 0 at input 9 (state: active, front: 4733).
33 | network_0/router_level3_129 | Using precomputed lookahead routing information for VC 0 at input 9 (front: 10).
33 | network_0/router_level3_129/buf_9/vc_0 | Changing state from active to vc_alloc.
33 | network_0/router_level3_171 | Beginning crossbar traversal for flit 6 from input 11.0 to output 2.0.
33 | network_0/router_level3_171 | Completed crossbar traversal for flit 6 from input 11.0 to output 2.0.
33 | network_0/router_level3_171 | Buffering flit 6 at output 2.
33 | network_0/router_level3_171 | Sending flit 6 to channel at output 2.
34 | network_0/network_0_fchan_egress1370 | Beginning channel traversal for flit 6 with delay 1.
34 | network_0/router_level3_129 | Beginning VC allocation for VC 0 at input 9 (front: 10).
34 | network_0/router_level3_129 |   Requesting VC 0 at output 6 (in_pri: 0, out_pri: 0).
34 | network_0/router_level3_129 |   Requesting VC 1 at output 6 (in_pri: 0, out_pri: 0).
34 | network_0/router_level3_129 |   Requesting VC 2 at output 6 (in_pri: 0, out_pri: 0).
34 | network_0/router_level3_129 |   Requesting VC 3 at output 6 (in_pri: 0, out_pri: 0).
34 | network_0/router_level3_129/vc_allocator | Input requests = [ 0 -> [ 49@0 ]  1 -> [ 56@0 ]  5 -> [ 33@0 34@0 ]  9 -> [ 49@0 ]  14 -> [ 33@0 34@0 ]  18 -> [ 49@0 ]  19 -> [ 49@0 ]  20 -> [ 49@0 ]  23 -> [ 49@0 ]  27 -> [ 41@0 ]  28 -> [ 56@0 ]  32 -> [ 12@0 13@0 14@0 15@0 ]  36 -> [ 24@0 25@0 26@0 27@0 ]  44 -> [ 4@0 5@0 6@0 7@0 ]  53 -> [ 12@0 13@0 14@0 15@0 ]  60 -> [ 17@0 18@0 19@0 ]  ], output requests = [ 4 -> [ 44@0 ]  5 -> [ 44@0 ]  6 -> [ 44@0 ]  7 -> [ 44@0 ]  12 -> [ 32@0 53@0 ]  13 -> [ 32@0 53@0 ]  14 -> [ 32@0 53@0 ]  15 -> [ 32@0 53@0 ]  17 -> [ 60@0 ]  18 -> [ 60@0 ]  19 -> [ 60@0 ]  24 -> [ 36@0 ]  25 -> [ 36@0 ]  26 -> [ 36@0 ]  27 -> [ 36@0 ]  33 -> [ 5@0 14@0 ]  34 -> [ 5@0 14@0 ]  41 -> [ 27@0 ]  49 -> [ 0@0 9@0 18@0 19@0 20@0 23@0 ]  56 -> [ 1@0 28@0 ]  ].
34 | network_0/router_level3_129/vc_allocator | Input grants = [ 14 -> 33  18 -> 49  27 -> 41  28 -> 56  32 -> 12  36 -> 24  44 -> 4  60 -> 17  ], output grants = [ 4 -> 44  12 -> 32  17 -> 60  24 -> 36  33 -> 14  41 -> 27  49 -> 18  56 -> 28  ].
34 | network_0/router_level3_129 | Assigning VC 0 at output 6 to VC 0 at input 9.
34 | network_0/router_level3_129 | Completed VC allocation for VC 0 at input 9 (front: 10).
34 | network_0/router_level3_129 |   Acquiring assigned VC 0 at output 6.
34 | network_0/router_level3_129/buf_9/vc_0 | Changing state from vc_alloc to active.
34 | network_0/network_0_fchan_egress1370 | Completed channel traversal for flit 6.
35 | node1370 | Ejecting flit 6 (packet 6) from VC 0.
35 | node1370 | Injecting credit for VC 0 into subnet 0.
35 | node1370 | Retiring flit 6 (packet 6, src = 6, dest = 1370, hops = 7, flat = 35).
35 | node1370 | Retiring packet 6 (plat = 35, nlat = 35, frag = 0, src = 6, dest = 1370).
35 | network_0/router_level3_129 | Beginning switch allocation for VC 0 at input 9 (front: 10).
35 | network_0/router_level3_129 |   Requesting output 6.0 (non-spec, pri: 0).
35 | network_0/router_level3_129/sw_allocator | Input requests = [ 0 -> [ 12@0 ]  1 -> [ 9@0 ]  2 -> [ 8@0 10@0 14@0 ]  3 -> [ 8@0 10@0 14@0 ]  4 -> [ 12@0 ]  6 -> [ 10@0 12@0 13@0 15@0 ]  7 -> [ 9@0 14@0 ]  8 -> [ 2@0 3@0 ]  9 -> [ 6@0 ]  11 -> [ 1@0 ]  15 -> [ 4@0 ]  ], output requests = [ 1 -> [ 11@0 ]  2 -> [ 8@0 ]  3 -> [ 8@0 ]  4 -> [ 15@0 ]  6 -> [ 9@0 ]  8 -> [ 2@0 3@0 ]  9 -> [ 1@0 7@0 ]  10 -> [ 2@0 3@0 6@0 ]  12 -> [ 0@0 4@0 6@0 ]  13 -> [ 6@0 ]  14 -> [ 2@0 3@0 7@0 ]  15 -> [ 6@0 ]  ].
35 | network_0/router_level3_129/sw_allocator | Input grants = [ 0 -> 12  2 -> 14  6 -> 10  7 -> 9  8 -> 3  9 -> 6  11 -> 1  15 -> 4  ], output grants = [ 1 -> 11  3 -> 8  4 -> 15  6 -> 9  9 -> 7  10 -> 6  12 -> 0  14 -> 2  ].
35 | network_0/router_level3_129 | Assigning output 6.0 to VC 0 at input 9.0.
35 | network_0/router_level3_129 | Completed switch allocation for VC 0 at input 9 (front: 10).
35 | network_0/router_level3_129 |   Scheduling switch connection from input 9.0 to output 6.0.
36 | network_0/router_level3_129 | Beginning crossbar traversal for flit 10 from input 9.0 to output 6.0.
36 | network_0/router_level3_129 | Completed crossbar traversal for flit 10 from input 9.0 to output 6.0.
36 | network_0/router_level3_129 | Buffering flit 10 at output 6.
36 | network_0/router_level3_129 | Sending flit 10 to channel at output 6.
37 | network_0/network_0_fchan_egress1038 | Beginning channel traversal for flit 10 with delay 1.
37 | network_0/network_0_fchan_egress1038 | Completed channel traversal for flit 10.
38 | node1038 | Ejecting flit 10 (packet 10) from VC 0.
38 | node1038 | Injecting credit for VC 0 into subnet 0.
38 | node1038 | Retiring flit 10 (packet 10, src = 10, dest = 1038, hops = 7, flat = 38).
38 | node1038 | Retiring packet 10 (plat = 38, nlat = 38, frag = 0, src = 10, dest = 1038).
Class 0:
Packet latency average = 196.79
	minimum = 6
	maximum = 525
Network latency average = 161.012
	minimum = 6
	maximum = 485
Slowest packet = 1088487
Flit latency average = 161.012
	minimum = 6
	maximum = 485
Slowest flit = 1467660
Fragmentation average = 0
	minimum = 0
	maximum = 0
Injected packet rate average = 0.741578
	minimum = 0.684 (at node 797)
	maximum = 0.785 (at node 1676)
Accepted packet rate average = 0.595444
	minimum = 0.516 (at node 521)
	maximum = 0.695 (at node 727)
Injected flit rate average = 0.741578
	minimum = 0.684 (at node 797)
	maximum = 0.785 (at node 1676)
Accepted flit rate average= 0.595444
	minimum = 0.516 (at node 521)
	maximum = 0.695 (at node 727)
Injected packet length average = 1
Accepted packet length average = 1
Total in-flight flits = 599843 (0 measured)
latency change    = 1
throughput change = 1
Class 0:
Packet latency average = 343.549
	minimum = 6
	maximum = 855
Network latency average = 200.028
	minimum = 6
	maximum = 557
Slowest packet = 1088487
Flit latency average = 200.028
	minimum = 6
	maximum = 557
Slowest flit = 3987786
Fragmentation average = 0
	minimum = 0
	maximum = 0
Injected packet rate average = 0.707673
	minimum = 0.6615 (at node 3713)
	maximum = 0.7415 (at node 4094)
Accepted packet rate average = 0.622613
	minimum = 0.5525 (at node 3892)
	maximum = 0.69 (at node 119)
Injected flit rate average = 0.707673
	minimum = 0.6615 (at node 3713)
	maximum = 0.7415 (at node 4094)
Accepted flit rate average= 0.622613
	minimum = 0.5525 (at node 3892)
	maximum = 0.69 (at node 119)
Injected packet length average = 1
Accepted packet length average = 1
Total in-flight flits = 698135 (0 measured)
latency change    = 0.427185
throughput change = 0.0436378
Class 0:
Packet latency average = 751.169
	minimum = 419
	maximum = 1172
Network latency average = 263.705
	minimum = 43
	maximum = 625
Slowest packet = 4915150
Flit latency average = 263.705
	minimum = 43
	maximum = 625
Slowest flit = 6228447
Fragmentation average = 0
	minimum = 0
	maximum = 0
Injected packet rate average = 0.670706
	minimum = 0.564 (at node 628)
	maximum = 0.727 (at node 4055)
Accepted packet rate average = 0.657111
	minimum = 0.571 (at node 2688)
	maximum = 0.736 (at node 1958)
Injected flit rate average = 0.670706
	minimum = 0.564 (at node 628)
	maximum = 0.727 (at node 4055)
Accepted flit rate average= 0.657111
	minimum = 0.571 (at node 2688)
	maximum = 0.736 (at node 1958)
Injected packet length average = 1
Accepted packet length average = 1
Total in-flight flits = 753839 (0 measured)
latency change    = 0.542647
throughput change = 0.0524992
Average latency for class 0 exceeded 500 cycles. Aborting simulation.
Too many sample periods needed to converge
Simulation unstable, ending ...
Total run time 874.022
