BEGIN Configuration File: examples/fattree_config_0.10_1_transpose
// $Id: dragonflyconfig 3555 2011-05-16 23:37:55Z dub $

// Copyright (c) 2007-2015, Trustees of The Leland Stanford Junior University
// All rights reserved.
//
// Redistribution and use in source and binary forms, with or without
// modification, are permitted provided that the following conditions are met:
//
// Redistributions of source code must retain the above copyright notice, this
// list of conditions and the following disclaimer.
// Redistributions in binary form must reproduce the above copyright notice,
// this list of conditions and the following disclaimer in the documentation
// and/or other materials provided with the distribution.
//
// THIS SOFTWARE IS PROVIDED BY THE COPYRIGHT HOLDERS AND CONTRIBUTORS "AS IS"
// AND ANY EXPRESS OR IMPLIED WARRANTIES, INCLUDING, BUT NOT LIMITED TO, THE
// IMPLIED WARRANTIES OF MERCHANTABILITY AND FITNESS FOR A PARTICULAR PURPOSE
// ARE DISCLAIMED. IN NO EVENT SHALL THE COPYRIGHT OWNER OR CONTRIBUTORS BE
// LIABLE FOR ANY DIRECT, INDIRECT, INCIDENTAL, SPECIAL, EXEMPLARY, OR
// CONSEQUENTIAL DAMAGES (INCLUDING, BUT NOT LIMITED TO, PROCUREMENT OF
// SUBSTITUTE GOODS OR SERVICES; LOSS OF USE, DATA, OR PROFITS; OR BUSINESS
// INTERRUPTION) HOWEVER CAUSED AND ON ANY THEORY OF LIABILITY, WHETHER IN
// CONTRACT, STRICT LIABILITY, OR TORT (INCLUDING NEGLIGENCE OR OTHERWISE)
// ARISING IN ANY WAY OUT OF THE USE OF THIS SOFTWARE, EVEN IF ADVISED OF THE
// POSSIBILITY OF SUCH DAMAGE.


hold_switch_for_packet=1;

vc_buf_size = 16;


wait_for_tail_credit = 0;

//
// Router architecture
//
vc_allocator = separable_input_first; 
sw_allocator = separable_input_first;
alloc_iters  = 1;

credit_delay   = 2;
routing_delay  = 0;
vc_alloc_delay = 1;
sw_alloc_delay = 1;
st_final_delay = 1;

input_speedup     = 1;
output_speedup    = 1;
internal_speedup  = 1.0;


warmup_periods = 3;
sim_count          = 1;

sample_period  = 1000;  

routing_function = nca;
num_vcs     = 4;

priority = none;
traffic = transpose;


injection_rate = 0.10;
packet_size = 1;
injection_rate_uses_flits=1;

topology = fattree;

k  = 8;
n  = 4;
t = 1;

watch_file = watchfile.txt;
watch_out=-;
stats_out = examples/fattree_config_0.10_1_transpose.m;

END Configuration File: examples/fattree_config_0.10_1_transpose
Fat Tree
 k = 8 levels = 4
 each switch - total radix =  16
 # of switches = 2048
 # of channels = 24576
 # of nodes ( size of network ) = 4096
 tapering factor = 1
0 | node34 | Enqueuing flit 1 (packet 1) at time 0.
0 | node62 | Enqueuing flit 2 (packet 2) at time 0.
0 | node77 | Enqueuing flit 3 (packet 3) at time 0.
0 | node84 | Enqueuing flit 4 (packet 4) at time 0.
0 | node93 | Enqueuing flit 5 (packet 5) at time 0.
0 | node101 | Enqueuing flit 6 (packet 6) at time 0.
0 | node102 | Enqueuing flit 7 (packet 7) at time 0.
0 | node110 | Enqueuing flit 8 (packet 8) at time 0.
0 | node119 | Enqueuing flit 9 (packet 9) at time 0.
0 | node121 | Enqueuing flit 10 (packet 10) at time 0.
0 | traffic_manager | Finding output VC for flit 1:
0 | traffic_manager |   Selected output VC 0.
0 | node34 | Generating lookahead routing info for flit 1.
0 | node34 | Injecting flit 1 into subnet 0 at time 0 with priority 0.
0 | traffic_manager | Finding output VC for flit 2:
0 | traffic_manager |   Selected output VC 0.
0 | node62 | Generating lookahead routing info for flit 2.
0 | node62 | Injecting flit 2 into subnet 0 at time 0 with priority 0.
0 | traffic_manager | Finding output VC for flit 3:
0 | traffic_manager |   Selected output VC 0.
0 | node77 | Generating lookahead routing info for flit 3.
0 | node77 | Injecting flit 3 into subnet 0 at time 0 with priority 0.
0 | traffic_manager | Finding output VC for flit 4:
0 | traffic_manager |   Selected output VC 0.
0 | node84 | Generating lookahead routing info for flit 4.
0 | node84 | Injecting flit 4 into subnet 0 at time 0 with priority 0.
0 | traffic_manager | Finding output VC for flit 5:
0 | traffic_manager |   Selected output VC 0.
0 | node93 | Generating lookahead routing info for flit 5.
0 | node93 | Injecting flit 5 into subnet 0 at time 0 with priority 0.
0 | traffic_manager | Finding output VC for flit 6:
0 | traffic_manager |   Selected output VC 0.
0 | node101 | Generating lookahead routing info for flit 6.
0 | node101 | Injecting flit 6 into subnet 0 at time 0 with priority 0.
0 | traffic_manager | Finding output VC for flit 7:
0 | traffic_manager |   Selected output VC 0.
0 | node102 | Generating lookahead routing info for flit 7.
0 | node102 | Injecting flit 7 into subnet 0 at time 0 with priority 0.
0 | traffic_manager | Finding output VC for flit 8:
0 | traffic_manager |   Selected output VC 0.
0 | node110 | Generating lookahead routing info for flit 8.
0 | node110 | Injecting flit 8 into subnet 0 at time 0 with priority 0.
0 | traffic_manager | Finding output VC for flit 9:
0 | traffic_manager |   Selected output VC 0.
0 | node119 | Generating lookahead routing info for flit 9.
0 | node119 | Injecting flit 9 into subnet 0 at time 0 with priority 0.
0 | traffic_manager | Finding output VC for flit 10:
0 | traffic_manager |   Selected output VC 0.
0 | node121 | Generating lookahead routing info for flit 10.
0 | node121 | Injecting flit 10 into subnet 0 at time 0 with priority 0.
1 | network_0/network_0_fchan_ingress34 | Beginning channel traversal for flit 1 with delay 1.
1 | network_0/network_0_fchan_ingress62 | Beginning channel traversal for flit 2 with delay 1.
1 | network_0/network_0_fchan_ingress77 | Beginning channel traversal for flit 3 with delay 1.
1 | network_0/network_0_fchan_ingress84 | Beginning channel traversal for flit 4 with delay 1.
1 | network_0/network_0_fchan_ingress93 | Beginning channel traversal for flit 5 with delay 1.
1 | network_0/network_0_fchan_ingress101 | Beginning channel traversal for flit 6 with delay 1.
1 | network_0/network_0_fchan_ingress102 | Beginning channel traversal for flit 7 with delay 1.
1 | network_0/network_0_fchan_ingress110 | Beginning channel traversal for flit 8 with delay 1.
1 | network_0/network_0_fchan_ingress119 | Beginning channel traversal for flit 9 with delay 1.
1 | network_0/network_0_fchan_ingress121 | Beginning channel traversal for flit 10 with delay 1.
1 | network_0/network_0_fchan_ingress34 | Completed channel traversal for flit 1.
1 | network_0/network_0_fchan_ingress62 | Completed channel traversal for flit 2.
1 | network_0/network_0_fchan_ingress77 | Completed channel traversal for flit 3.
1 | network_0/network_0_fchan_ingress84 | Completed channel traversal for flit 4.
1 | network_0/network_0_fchan_ingress93 | Completed channel traversal for flit 5.
1 | network_0/network_0_fchan_ingress101 | Completed channel traversal for flit 6.
1 | network_0/network_0_fchan_ingress102 | Completed channel traversal for flit 7.
1 | network_0/network_0_fchan_ingress110 | Completed channel traversal for flit 8.
1 | network_0/network_0_fchan_ingress119 | Completed channel traversal for flit 9.
1 | network_0/network_0_fchan_ingress121 | Completed channel traversal for flit 10.
2 | network_0/router_level3_4 | Received flit 1 from channel at input 2.
2 | network_0/router_level3_7 | Received flit 2 from channel at input 6.
2 | network_0/router_level3_9 | Received flit 3 from channel at input 5.
2 | network_0/router_level3_10 | Received flit 4 from channel at input 4.
2 | network_0/router_level3_11 | Received flit 5 from channel at input 5.
2 | network_0/router_level3_12 | Received flit 6 from channel at input 5.
2 | network_0/router_level3_12 | Received flit 7 from channel at input 6.
2 | network_0/router_level3_13 | Received flit 8 from channel at input 6.
2 | network_0/router_level3_14 | Received flit 9 from channel at input 7.
2 | network_0/router_level3_15 | Received flit 10 from channel at input 1.
2 | network_0/router_level3_4 | Adding flit 1 to VC 0 at input 2 (state: idle, empty).
2 | network_0/router_level3_4 | Using precomputed lookahead routing information for VC 0 at input 2 (front: 1).
2 | network_0/router_level3_4/buf_2/vc_0 | Changing state from idle to vc_alloc.
2 | network_0/router_level3_4 | Beginning VC allocation for VC 0 at input 2 (front: 1).
2 | network_0/router_level3_4 |   Requesting VC 0 at output 9 (in_pri: 0, out_pri: 0).
2 | network_0/router_level3_4 |   Requesting VC 1 at output 9 (in_pri: 0, out_pri: 0).
2 | network_0/router_level3_4 |   Requesting VC 2 at output 9 (in_pri: 0, out_pri: 0).
2 | network_0/router_level3_4 |   Requesting VC 3 at output 9 (in_pri: 0, out_pri: 0).
2 | network_0/router_level3_4/vc_allocator | Input requests = [ 8 -> [ 36@0 37@0 38@0 39@0 ]  ], output requests = [ 36 -> [ 8@0 ]  37 -> [ 8@0 ]  38 -> [ 8@0 ]  39 -> [ 8@0 ]  ].
2 | network_0/router_level3_4/vc_allocator | Input grants = [ 8 -> 36  ], output grants = [ 36 -> 8  ].
2 | network_0/router_level3_4 | Assigning VC 0 at output 9 to VC 0 at input 2.
2 | network_0/router_level3_4 | Completed VC allocation for VC 0 at input 2 (front: 1).
2 | network_0/router_level3_4 |   Acquiring assigned VC 0 at output 9.
2 | network_0/router_level3_4/buf_2/vc_0 | Changing state from vc_alloc to active.
2 | network_0/router_level3_7 | Adding flit 2 to VC 0 at input 6 (state: idle, empty).
2 | network_0/router_level3_7 | Using precomputed lookahead routing information for VC 0 at input 6 (front: 2).
2 | network_0/router_level3_7/buf_6/vc_0 | Changing state from idle to vc_alloc.
2 | network_0/router_level3_7 | Beginning VC allocation for VC 0 at input 6 (front: 2).
2 | network_0/router_level3_7 |   Requesting VC 0 at output 14 (in_pri: 0, out_pri: 0).
2 | network_0/router_level3_7 |   Requesting VC 1 at output 14 (in_pri: 0, out_pri: 0).
2 | network_0/router_level3_7 |   Requesting VC 2 at output 14 (in_pri: 0, out_pri: 0).
2 | network_0/router_level3_7 |   Requesting VC 3 at output 14 (in_pri: 0, out_pri: 0).
2 | network_0/router_level3_7/vc_allocator | Input requests = [ 24 -> [ 56@0 57@0 58@0 59@0 ]  ], output requests = [ 56 -> [ 24@0 ]  57 -> [ 24@0 ]  58 -> [ 24@0 ]  59 -> [ 24@0 ]  ].
2 | network_0/router_level3_7/vc_allocator | Input grants = [ 24 -> 56  ], output grants = [ 56 -> 24  ].
2 | network_0/router_level3_7 | Assigning VC 0 at output 14 to VC 0 at input 6.
2 | network_0/router_level3_7 | Completed VC allocation for VC 0 at input 6 (front: 2).
2 | network_0/router_level3_7 |   Acquiring assigned VC 0 at output 14.
2 | network_0/router_level3_7/buf_6/vc_0 | Changing state from vc_alloc to active.
2 | network_0/router_level3_9 | Adding flit 3 to VC 0 at input 5 (state: idle, empty).
2 | network_0/router_level3_9 | Using precomputed lookahead routing information for VC 0 at input 5 (front: 3).
2 | network_0/router_level3_9/buf_5/vc_0 | Changing state from idle to vc_alloc.
2 | network_0/router_level3_9 | Beginning VC allocation for VC 0 at input 5 (front: 3).
2 | network_0/router_level3_9 |   Requesting VC 0 at output 14 (in_pri: 0, out_pri: 0).
2 | network_0/router_level3_9 |   Requesting VC 1 at output 14 (in_pri: 0, out_pri: 0).
2 | network_0/router_level3_9 |   Requesting VC 2 at output 14 (in_pri: 0, out_pri: 0).
2 | network_0/router_level3_9 |   Requesting VC 3 at output 14 (in_pri: 0, out_pri: 0).
2 | network_0/router_level3_9/vc_allocator | Input requests = [ 20 -> [ 56@0 57@0 58@0 59@0 ]  ], output requests = [ 56 -> [ 20@0 ]  57 -> [ 20@0 ]  58 -> [ 20@0 ]  59 -> [ 20@0 ]  ].
2 | network_0/router_level3_9/vc_allocator | Input grants = [ 20 -> 56  ], output grants = [ 56 -> 20  ].
2 | network_0/router_level3_9 | Assigning VC 0 at output 14 to VC 0 at input 5.
2 | network_0/router_level3_9 | Completed VC allocation for VC 0 at input 5 (front: 3).
2 | network_0/router_level3_9 |   Acquiring assigned VC 0 at output 14.
2 | network_0/router_level3_9/buf_5/vc_0 | Changing state from vc_alloc to active.
2 | network_0/router_level3_10 | Adding flit 4 to VC 0 at input 4 (state: idle, empty).
2 | network_0/router_level3_10 | Using precomputed lookahead routing information for VC 0 at input 4 (front: 4).
2 | network_0/router_level3_10/buf_4/vc_0 | Changing state from idle to vc_alloc.
2 | network_0/router_level3_10 | Beginning VC allocation for VC 0 at input 4 (front: 4).
2 | network_0/router_level3_10 |   Requesting VC 0 at output 11 (in_pri: 0, out_pri: 0).
2 | network_0/router_level3_10 |   Requesting VC 1 at output 11 (in_pri: 0, out_pri: 0).
2 | network_0/router_level3_10 |   Requesting VC 2 at output 11 (in_pri: 0, out_pri: 0).
2 | network_0/router_level3_10 |   Requesting VC 3 at output 11 (in_pri: 0, out_pri: 0).
2 | network_0/router_level3_10/vc_allocator | Input requests = [ 16 -> [ 44@0 45@0 46@0 47@0 ]  ], output requests = [ 44 -> [ 16@0 ]  45 -> [ 16@0 ]  46 -> [ 16@0 ]  47 -> [ 16@0 ]  ].
2 | network_0/router_level3_10/vc_allocator | Input grants = [ 16 -> 44  ], output grants = [ 44 -> 16  ].
2 | network_0/router_level3_10 | Assigning VC 0 at output 11 to VC 0 at input 4.
2 | network_0/router_level3_10 | Completed VC allocation for VC 0 at input 4 (front: 4).
2 | network_0/router_level3_10 |   Acquiring assigned VC 0 at output 11.
2 | network_0/router_level3_10/buf_4/vc_0 | Changing state from vc_alloc to active.
2 | network_0/router_level3_11 | Adding flit 5 to VC 0 at input 5 (state: idle, empty).
2 | network_0/router_level3_11 | Using precomputed lookahead routing information for VC 0 at input 5 (front: 5).
2 | network_0/router_level3_11/buf_5/vc_0 | Changing state from idle to vc_alloc.
2 | network_0/router_level3_11 | Beginning VC allocation for VC 0 at input 5 (front: 5).
2 | network_0/router_level3_11 |   Requesting VC 0 at output 11 (in_pri: 0, out_pri: 0).
2 | network_0/router_level3_11 |   Requesting VC 1 at output 11 (in_pri: 0, out_pri: 0).
2 | network_0/router_level3_11 |   Requesting VC 2 at output 11 (in_pri: 0, out_pri: 0).
2 | network_0/router_level3_11 |   Requesting VC 3 at output 11 (in_pri: 0, out_pri: 0).
2 | network_0/router_level3_11/vc_allocator | Input requests = [ 20 -> [ 44@0 45@0 46@0 47@0 ]  ], output requests = [ 44 -> [ 20@0 ]  45 -> [ 20@0 ]  46 -> [ 20@0 ]  47 -> [ 20@0 ]  ].
2 | network_0/router_level3_11/vc_allocator | Input grants = [ 20 -> 44  ], output grants = [ 44 -> 20  ].
2 | network_0/router_level3_11 | Assigning VC 0 at output 11 to VC 0 at input 5.
2 | network_0/router_level3_11 | Completed VC allocation for VC 0 at input 5 (front: 5).
2 | network_0/router_level3_11 |   Acquiring assigned VC 0 at output 11.
2 | network_0/router_level3_11/buf_5/vc_0 | Changing state from vc_alloc to active.
2 | network_0/router_level3_12 | Adding flit 6 to VC 0 at input 5 (state: idle, empty).
2 | network_0/router_level3_12 | Using precomputed lookahead routing information for VC 0 at input 5 (front: 6).
2 | network_0/router_level3_12/buf_5/vc_0 | Changing state from idle to vc_alloc.
2 | network_0/router_level3_12 | Adding flit 7 to VC 0 at input 6 (state: idle, empty).
2 | network_0/router_level3_12 | Using precomputed lookahead routing information for VC 0 at input 6 (front: 7).
2 | network_0/router_level3_12/buf_6/vc_0 | Changing state from idle to vc_alloc.
2 | network_0/router_level3_12 | Beginning VC allocation for VC 0 at input 5 (front: 6).
2 | network_0/router_level3_12 |   Requesting VC 0 at output 10 (in_pri: 0, out_pri: 0).
2 | network_0/router_level3_12 |   Requesting VC 1 at output 10 (in_pri: 0, out_pri: 0).
2 | network_0/router_level3_12 |   Requesting VC 2 at output 10 (in_pri: 0, out_pri: 0).
2 | network_0/router_level3_12 |   Requesting VC 3 at output 10 (in_pri: 0, out_pri: 0).
2 | network_0/router_level3_12 | Beginning VC allocation for VC 0 at input 6 (front: 7).
2 | network_0/router_level3_12 |   Requesting VC 0 at output 12 (in_pri: 0, out_pri: 0).
2 | network_0/router_level3_12 |   Requesting VC 1 at output 12 (in_pri: 0, out_pri: 0).
2 | network_0/router_level3_12 |   Requesting VC 2 at output 12 (in_pri: 0, out_pri: 0).
2 | network_0/router_level3_12 |   Requesting VC 3 at output 12 (in_pri: 0, out_pri: 0).
2 | network_0/router_level3_12/vc_allocator | Input requests = [ 20 -> [ 40@0 41@0 42@0 43@0 ]  24 -> [ 48@0 49@0 50@0 51@0 ]  ], output requests = [ 40 -> [ 20@0 ]  41 -> [ 20@0 ]  42 -> [ 20@0 ]  43 -> [ 20@0 ]  48 -> [ 24@0 ]  49 -> [ 24@0 ]  50 -> [ 24@0 ]  51 -> [ 24@0 ]  ].
2 | network_0/router_level3_12/vc_allocator | Input grants = [ 20 -> 40  24 -> 48  ], output grants = [ 40 -> 20  48 -> 24  ].
2 | network_0/router_level3_12 | Assigning VC 0 at output 10 to VC 0 at input 5.
2 | network_0/router_level3_12 | Assigning VC 0 at output 12 to VC 0 at input 6.
2 | network_0/router_level3_12 | Completed VC allocation for VC 0 at input 5 (front: 6).
2 | network_0/router_level3_12 |   Acquiring assigned VC 0 at output 10.
2 | network_0/router_level3_12/buf_5/vc_0 | Changing state from vc_alloc to active.
2 | network_0/router_level3_12 | Completed VC allocation for VC 0 at input 6 (front: 7).
2 | network_0/router_level3_12 |   Acquiring assigned VC 0 at output 12.
2 | network_0/router_level3_12/buf_6/vc_0 | Changing state from vc_alloc to active.
2 | network_0/router_level3_13 | Adding flit 8 to VC 0 at input 6 (state: idle, empty).
2 | network_0/router_level3_13 | Using precomputed lookahead routing information for VC 0 at input 6 (front: 8).
2 | network_0/router_level3_13/buf_6/vc_0 | Changing state from idle to vc_alloc.
2 | network_0/router_level3_13 | Beginning VC allocation for VC 0 at input 6 (front: 8).
2 | network_0/router_level3_13 |   Requesting VC 0 at output 13 (in_pri: 0, out_pri: 0).
2 | network_0/router_level3_13 |   Requesting VC 1 at output 13 (in_pri: 0, out_pri: 0).
2 | network_0/router_level3_13 |   Requesting VC 2 at output 13 (in_pri: 0, out_pri: 0).
2 | network_0/router_level3_13 |   Requesting VC 3 at output 13 (in_pri: 0, out_pri: 0).
2 | network_0/router_level3_13/vc_allocator | Input requests = [ 24 -> [ 52@0 53@0 54@0 55@0 ]  ], output requests = [ 52 -> [ 24@0 ]  53 -> [ 24@0 ]  54 -> [ 24@0 ]  55 -> [ 24@0 ]  ].
2 | network_0/router_level3_13/vc_allocator | Input grants = [ 24 -> 52  ], output grants = [ 52 -> 24  ].
2 | network_0/router_level3_13 | Assigning VC 0 at output 13 to VC 0 at input 6.
2 | network_0/router_level3_13 | Completed VC allocation for VC 0 at input 6 (front: 8).
2 | network_0/router_level3_13 |   Acquiring assigned VC 0 at output 13.
2 | network_0/router_level3_13/buf_6/vc_0 | Changing state from vc_alloc to active.
2 | network_0/router_level3_14 | Adding flit 9 to VC 0 at input 7 (state: idle, empty).
2 | network_0/router_level3_14 | Using precomputed lookahead routing information for VC 0 at input 7 (front: 9).
2 | network_0/router_level3_14/buf_7/vc_0 | Changing state from idle to vc_alloc.
2 | network_0/router_level3_14 | Beginning VC allocation for VC 0 at input 7 (front: 9).
2 | network_0/router_level3_14 |   Requesting VC 0 at output 11 (in_pri: 0, out_pri: 0).
2 | network_0/router_level3_14 |   Requesting VC 1 at output 11 (in_pri: 0, out_pri: 0).
2 | network_0/router_level3_14 |   Requesting VC 2 at output 11 (in_pri: 0, out_pri: 0).
2 | network_0/router_level3_14 |   Requesting VC 3 at output 11 (in_pri: 0, out_pri: 0).
2 | network_0/router_level3_14/vc_allocator | Input requests = [ 28 -> [ 44@0 45@0 46@0 47@0 ]  ], output requests = [ 44 -> [ 28@0 ]  45 -> [ 28@0 ]  46 -> [ 28@0 ]  47 -> [ 28@0 ]  ].
2 | network_0/router_level3_14/vc_allocator | Input grants = [ 28 -> 44  ], output grants = [ 44 -> 28  ].
2 | network_0/router_level3_14 | Assigning VC 0 at output 11 to VC 0 at input 7.
2 | network_0/router_level3_14 | Completed VC allocation for VC 0 at input 7 (front: 9).
2 | network_0/router_level3_14 |   Acquiring assigned VC 0 at output 11.
2 | network_0/router_level3_14/buf_7/vc_0 | Changing state from vc_alloc to active.
2 | network_0/router_level3_15 | Adding flit 10 to VC 0 at input 1 (state: idle, empty).
2 | network_0/router_level3_15 | Using precomputed lookahead routing information for VC 0 at input 1 (front: 10).
2 | network_0/router_level3_15/buf_1/vc_0 | Changing state from idle to vc_alloc.
2 | network_0/router_level3_15 | Beginning VC allocation for VC 0 at input 1 (front: 10).
2 | network_0/router_level3_15 |   Requesting VC 0 at output 8 (in_pri: 0, out_pri: 0).
2 | network_0/router_level3_15 |   Requesting VC 1 at output 8 (in_pri: 0, out_pri: 0).
2 | network_0/router_level3_15 |   Requesting VC 2 at output 8 (in_pri: 0, out_pri: 0).
2 | network_0/router_level3_15 |   Requesting VC 3 at output 8 (in_pri: 0, out_pri: 0).
2 | network_0/router_level3_15/vc_allocator | Input requests = [ 4 -> [ 32@0 33@0 34@0 35@0 ]  ], output requests = [ 32 -> [ 4@0 ]  33 -> [ 4@0 ]  34 -> [ 4@0 ]  35 -> [ 4@0 ]  ].
2 | network_0/router_level3_15/vc_allocator | Input grants = [ 4 -> 32  ], output grants = [ 32 -> 4  ].
2 | network_0/router_level3_15 | Assigning VC 0 at output 8 to VC 0 at input 1.
2 | network_0/router_level3_15 | Completed VC allocation for VC 0 at input 1 (front: 10).
2 | network_0/router_level3_15 |   Acquiring assigned VC 0 at output 8.
2 | network_0/router_level3_15/buf_1/vc_0 | Changing state from vc_alloc to active.
3 | network_0/router_level3_4 | Beginning switch allocation for VC 0 at input 2 (front: 1).
3 | network_0/router_level3_4 |   Requesting output 9.0 (non-spec, pri: 0).
3 | network_0/router_level3_4/sw_allocator | Input requests = [ 2 -> [ 9@0 ]  ], output requests = [ 9 -> [ 2@0 ]  ].
3 | network_0/router_level3_4/sw_allocator | Input grants = [ 2 -> 9  ], output grants = [ 9 -> 2  ].
3 | network_0/router_level3_4 | Assigning output 9.0 to VC 0 at input 2.0.
3 | network_0/router_level3_4 | Completed switch allocation for VC 0 at input 2 (front: 1).
3 | network_0/router_level3_4 |   Scheduling switch connection from input 2.0 to output 9.0.
3 | network_0/router_level3_4 | Updating lookahead routing information for flit 1.
3 | network_0/router_level3_7 | Beginning switch allocation for VC 0 at input 6 (front: 2).
3 | network_0/router_level3_7 |   Requesting output 14.0 (non-spec, pri: 0).
3 | network_0/router_level3_7/sw_allocator | Input requests = [ 6 -> [ 14@0 ]  ], output requests = [ 14 -> [ 6@0 ]  ].
3 | network_0/router_level3_7/sw_allocator | Input grants = [ 6 -> 14  ], output grants = [ 14 -> 6  ].
3 | network_0/router_level3_7 | Assigning output 14.0 to VC 0 at input 6.0.
3 | network_0/router_level3_7 | Completed switch allocation for VC 0 at input 6 (front: 2).
3 | network_0/router_level3_7 |   Scheduling switch connection from input 6.0 to output 14.0.
3 | network_0/router_level3_7 | Updating lookahead routing information for flit 2.
3 | network_0/router_level3_9 | Beginning switch allocation for VC 0 at input 5 (front: 3).
3 | network_0/router_level3_9 |   Requesting output 14.0 (non-spec, pri: 0).
3 | network_0/router_level3_9/sw_allocator | Input requests = [ 5 -> [ 14@0 ]  ], output requests = [ 14 -> [ 5@0 ]  ].
3 | network_0/router_level3_9/sw_allocator | Input grants = [ 5 -> 14  ], output grants = [ 14 -> 5  ].
3 | network_0/router_level3_9 | Assigning output 14.0 to VC 0 at input 5.0.
3 | network_0/router_level3_9 | Completed switch allocation for VC 0 at input 5 (front: 3).
3 | network_0/router_level3_9 |   Scheduling switch connection from input 5.0 to output 14.0.
3 | network_0/router_level3_9 | Updating lookahead routing information for flit 3.
3 | network_0/router_level3_10 | Beginning switch allocation for VC 0 at input 4 (front: 4).
3 | network_0/router_level3_10 |   Requesting output 11.0 (non-spec, pri: 0).
3 | network_0/router_level3_10/sw_allocator | Input requests = [ 4 -> [ 11@0 ]  ], output requests = [ 11 -> [ 4@0 ]  ].
3 | network_0/router_level3_10/sw_allocator | Input grants = [ 4 -> 11  ], output grants = [ 11 -> 4  ].
3 | network_0/router_level3_10 | Assigning output 11.0 to VC 0 at input 4.0.
3 | network_0/router_level3_10 | Completed switch allocation for VC 0 at input 4 (front: 4).
3 | network_0/router_level3_10 |   Scheduling switch connection from input 4.0 to output 11.0.
3 | network_0/router_level3_10 | Updating lookahead routing information for flit 4.
3 | network_0/router_level3_11 | Beginning switch allocation for VC 0 at input 5 (front: 5).
3 | network_0/router_level3_11 |   Requesting output 11.0 (non-spec, pri: 0).
3 | network_0/router_level3_11/sw_allocator | Input requests = [ 5 -> [ 11@0 ]  ], output requests = [ 11 -> [ 5@0 ]  ].
3 | network_0/router_level3_11/sw_allocator | Input grants = [ 5 -> 11  ], output grants = [ 11 -> 5  ].
3 | network_0/router_level3_11 | Assigning output 11.0 to VC 0 at input 5.0.
3 | network_0/router_level3_11 | Completed switch allocation for VC 0 at input 5 (front: 5).
3 | network_0/router_level3_11 |   Scheduling switch connection from input 5.0 to output 11.0.
3 | network_0/router_level3_11 | Updating lookahead routing information for flit 5.
3 | network_0/router_level3_12 | Beginning switch allocation for VC 0 at input 5 (front: 6).
3 | network_0/router_level3_12 |   Requesting output 10.0 (non-spec, pri: 0).
3 | network_0/router_level3_12 | Beginning switch allocation for VC 0 at input 6 (front: 7).
3 | network_0/router_level3_12 |   Requesting output 12.0 (non-spec, pri: 0).
3 | network_0/router_level3_12/sw_allocator | Input requests = [ 5 -> [ 10@0 ]  6 -> [ 12@0 ]  ], output requests = [ 10 -> [ 5@0 ]  12 -> [ 6@0 ]  ].
3 | network_0/router_level3_12/sw_allocator | Input grants = [ 5 -> 10  6 -> 12  ], output grants = [ 10 -> 5  12 -> 6  ].
3 | network_0/router_level3_12 | Assigning output 10.0 to VC 0 at input 5.0.
3 | network_0/router_level3_12 | Assigning output 12.0 to VC 0 at input 6.0.
3 | network_0/router_level3_12 | Completed switch allocation for VC 0 at input 5 (front: 6).
3 | network_0/router_level3_12 |   Scheduling switch connection from input 5.0 to output 10.0.
3 | network_0/router_level3_12 | Updating lookahead routing information for flit 6.
3 | network_0/router_level3_12 | Completed switch allocation for VC 0 at input 6 (front: 7).
3 | network_0/router_level3_12 |   Scheduling switch connection from input 6.0 to output 12.0.
3 | network_0/router_level3_12 | Updating lookahead routing information for flit 7.
3 | network_0/router_level3_13 | Beginning switch allocation for VC 0 at input 6 (front: 8).
3 | network_0/router_level3_13 |   Requesting output 13.0 (non-spec, pri: 0).
3 | network_0/router_level3_13/sw_allocator | Input requests = [ 6 -> [ 13@0 ]  ], output requests = [ 13 -> [ 6@0 ]  ].
3 | network_0/router_level3_13/sw_allocator | Input grants = [ 6 -> 13  ], output grants = [ 13 -> 6  ].
3 | network_0/router_level3_13 | Assigning output 13.0 to VC 0 at input 6.0.
3 | network_0/router_level3_13 | Completed switch allocation for VC 0 at input 6 (front: 8).
3 | network_0/router_level3_13 |   Scheduling switch connection from input 6.0 to output 13.0.
3 | network_0/router_level3_13 | Updating lookahead routing information for flit 8.
3 | network_0/router_level3_14 | Beginning switch allocation for VC 0 at input 7 (front: 9).
3 | network_0/router_level3_14 |   Requesting output 11.0 (non-spec, pri: 0).
3 | network_0/router_level3_14/sw_allocator | Input requests = [ 7 -> [ 11@0 ]  ], output requests = [ 11 -> [ 7@0 ]  ].
3 | network_0/router_level3_14/sw_allocator | Input grants = [ 7 -> 11  ], output grants = [ 11 -> 7  ].
3 | network_0/router_level3_14 | Assigning output 11.0 to VC 0 at input 7.0.
3 | network_0/router_level3_14 | Completed switch allocation for VC 0 at input 7 (front: 9).
3 | network_0/router_level3_14 |   Scheduling switch connection from input 7.0 to output 11.0.
3 | network_0/router_level3_14 | Updating lookahead routing information for flit 9.
3 | network_0/router_level3_15 | Beginning switch allocation for VC 0 at input 1 (front: 10).
3 | network_0/router_level3_15 |   Requesting output 8.0 (non-spec, pri: 0).
3 | network_0/router_level3_15/sw_allocator | Input requests = [ 1 -> [ 8@0 ]  ], output requests = [ 8 -> [ 1@0 ]  ].
3 | network_0/router_level3_15/sw_allocator | Input grants = [ 1 -> 8  ], output grants = [ 8 -> 1  ].
3 | network_0/router_level3_15 | Assigning output 8.0 to VC 0 at input 1.0.
3 | network_0/router_level3_15 | Completed switch allocation for VC 0 at input 1 (front: 10).
3 | network_0/router_level3_15 |   Scheduling switch connection from input 1.0 to output 8.0.
3 | network_0/router_level3_15 | Updating lookahead routing information for flit 10.
4 | network_0/router_level3_4 | Beginning crossbar traversal for flit 1 from input 2.0 to output 9.0.
4 | network_0/router_level3_4 | Completed crossbar traversal for flit 1 from input 2.0 to output 9.0.
4 | network_0/router_level3_4 | Buffering flit 1 at output 9.
4 | network_0/router_level3_7 | Beginning crossbar traversal for flit 2 from input 6.0 to output 14.0.
4 | network_0/router_level3_7 | Completed crossbar traversal for flit 2 from input 6.0 to output 14.0.
4 | network_0/router_level3_7 | Buffering flit 2 at output 14.
4 | network_0/router_level3_9 | Beginning crossbar traversal for flit 3 from input 5.0 to output 14.0.
4 | network_0/router_level3_9 | Completed crossbar traversal for flit 3 from input 5.0 to output 14.0.
4 | network_0/router_level3_9 | Buffering flit 3 at output 14.
4 | network_0/router_level3_10 | Beginning crossbar traversal for flit 4 from input 4.0 to output 11.0.
4 | network_0/router_level3_10 | Completed crossbar traversal for flit 4 from input 4.0 to output 11.0.
4 | network_0/router_level3_10 | Buffering flit 4 at output 11.
4 | network_0/router_level3_11 | Beginning crossbar traversal for flit 5 from input 5.0 to output 11.0.
4 | network_0/router_level3_11 | Completed crossbar traversal for flit 5 from input 5.0 to output 11.0.
4 | network_0/router_level3_11 | Buffering flit 5 at output 11.
4 | network_0/router_level3_12 | Beginning crossbar traversal for flit 6 from input 5.0 to output 10.0.
4 | network_0/router_level3_12 | Beginning crossbar traversal for flit 7 from input 6.0 to output 12.0.
4 | network_0/router_level3_12 | Completed crossbar traversal for flit 6 from input 5.0 to output 10.0.
4 | network_0/router_level3_12 | Buffering flit 6 at output 10.
4 | network_0/router_level3_12 | Completed crossbar traversal for flit 7 from input 6.0 to output 12.0.
4 | network_0/router_level3_12 | Buffering flit 7 at output 12.
4 | network_0/router_level3_13 | Beginning crossbar traversal for flit 8 from input 6.0 to output 13.0.
4 | network_0/router_level3_13 | Completed crossbar traversal for flit 8 from input 6.0 to output 13.0.
4 | network_0/router_level3_13 | Buffering flit 8 at output 13.
4 | network_0/router_level3_14 | Beginning crossbar traversal for flit 9 from input 7.0 to output 11.0.
4 | network_0/router_level3_14 | Completed crossbar traversal for flit 9 from input 7.0 to output 11.0.
4 | network_0/router_level3_14 | Buffering flit 9 at output 11.
4 | network_0/router_level3_15 | Beginning crossbar traversal for flit 10 from input 1.0 to output 8.0.
4 | network_0/router_level3_15 | Completed crossbar traversal for flit 10 from input 1.0 to output 8.0.
4 | network_0/router_level3_15 | Buffering flit 10 at output 8.
4 | network_0/router_level3_4 | Sending flit 1 to channel at output 9.
4 | network_0/router_level3_7 | Sending flit 2 to channel at output 14.
4 | network_0/router_level3_9 | Sending flit 3 to channel at output 14.
4 | network_0/router_level3_10 | Sending flit 4 to channel at output 11.
4 | network_0/router_level3_11 | Sending flit 5 to channel at output 11.
4 | network_0/router_level3_12 | Sending flit 6 to channel at output 10.
4 | network_0/router_level3_12 | Sending flit 7 to channel at output 12.
4 | network_0/router_level3_13 | Sending flit 8 to channel at output 13.
4 | network_0/router_level3_14 | Sending flit 9 to channel at output 11.
4 | network_0/router_level3_15 | Sending flit 10 to channel at output 8.
5 | network_0/network_0_fchan_20513 | Beginning channel traversal for flit 1 with delay 1.
5 | network_0/network_0_fchan_20542 | Beginning channel traversal for flit 2 with delay 1.
5 | network_0/network_0_fchan_20558 | Beginning channel traversal for flit 3 with delay 1.
5 | network_0/network_0_fchan_20563 | Beginning channel traversal for flit 4 with delay 1.
5 | network_0/network_0_fchan_20571 | Beginning channel traversal for flit 5 with delay 1.
5 | network_0/network_0_fchan_20578 | Beginning channel traversal for flit 6 with delay 1.
5 | network_0/network_0_fchan_20580 | Beginning channel traversal for flit 7 with delay 1.
5 | network_0/network_0_fchan_20589 | Beginning channel traversal for flit 8 with delay 1.
5 | network_0/network_0_fchan_20595 | Beginning channel traversal for flit 9 with delay 1.
5 | network_0/network_0_fchan_20600 | Beginning channel traversal for flit 10 with delay 1.
5 | network_0/network_0_fchan_20513 | Completed channel traversal for flit 1.
5 | network_0/network_0_fchan_20542 | Completed channel traversal for flit 2.
5 | network_0/network_0_fchan_20558 | Completed channel traversal for flit 3.
5 | network_0/network_0_fchan_20563 | Completed channel traversal for flit 4.
5 | network_0/network_0_fchan_20571 | Completed channel traversal for flit 5.
5 | network_0/network_0_fchan_20578 | Completed channel traversal for flit 6.
5 | network_0/network_0_fchan_20580 | Completed channel traversal for flit 7.
5 | network_0/network_0_fchan_20589 | Completed channel traversal for flit 8.
5 | network_0/network_0_fchan_20595 | Completed channel traversal for flit 9.
5 | network_0/network_0_fchan_20600 | Completed channel traversal for flit 10.
6 | network_0/router_level2_1 | Received flit 1 from channel at input 4.
6 | network_0/router_level2_6 | Received flit 2 from channel at input 7.
6 | network_0/router_level2_8 | Received flit 10 from channel at input 7.
6 | network_0/router_level2_10 | Received flit 6 from channel at input 4.
6 | network_0/router_level2_11 | Received flit 4 from channel at input 2.
6 | network_0/router_level2_11 | Received flit 5 from channel at input 3.
6 | network_0/router_level2_11 | Received flit 9 from channel at input 6.
6 | network_0/router_level2_12 | Received flit 7 from channel at input 4.
6 | network_0/router_level2_13 | Received flit 8 from channel at input 5.
6 | network_0/router_level2_14 | Received flit 3 from channel at input 1.
6 | network_0/router_level2_1 | Adding flit 1 to VC 0 at input 4 (state: idle, empty).
6 | network_0/router_level2_1 | Using precomputed lookahead routing information for VC 0 at input 4 (front: 1).
6 | network_0/router_level2_1/buf_4/vc_0 | Changing state from idle to vc_alloc.
6 | network_0/router_level2_1 | Beginning VC allocation for VC 0 at input 4 (front: 1).
6 | network_0/router_level2_1 |   Requesting VC 0 at output 12 (in_pri: 0, out_pri: 0).
6 | network_0/router_level2_1 |   Requesting VC 1 at output 12 (in_pri: 0, out_pri: 0).
6 | network_0/router_level2_1 |   Requesting VC 2 at output 12 (in_pri: 0, out_pri: 0).
6 | network_0/router_level2_1 |   Requesting VC 3 at output 12 (in_pri: 0, out_pri: 0).
6 | network_0/router_level2_1/vc_allocator | Input requests = [ 16 -> [ 48@0 49@0 50@0 51@0 ]  ], output requests = [ 48 -> [ 16@0 ]  49 -> [ 16@0 ]  50 -> [ 16@0 ]  51 -> [ 16@0 ]  ].
6 | network_0/router_level2_1/vc_allocator | Input grants = [ 16 -> 48  ], output grants = [ 48 -> 16  ].
6 | network_0/router_level2_1 | Assigning VC 0 at output 12 to VC 0 at input 4.
6 | network_0/router_level2_1 | Completed VC allocation for VC 0 at input 4 (front: 1).
6 | network_0/router_level2_1 |   Acquiring assigned VC 0 at output 12.
6 | network_0/router_level2_1/buf_4/vc_0 | Changing state from vc_alloc to active.
6 | network_0/router_level2_6 | Adding flit 2 to VC 0 at input 7 (state: idle, empty).
6 | network_0/router_level2_6 | Using precomputed lookahead routing information for VC 0 at input 7 (front: 2).
6 | network_0/router_level2_6/buf_7/vc_0 | Changing state from idle to vc_alloc.
6 | network_0/router_level2_6 | Beginning VC allocation for VC 0 at input 7 (front: 2).
6 | network_0/router_level2_6 |   Requesting VC 0 at output 14 (in_pri: 0, out_pri: 0).
6 | network_0/router_level2_6 |   Requesting VC 1 at output 14 (in_pri: 0, out_pri: 0).
6 | network_0/router_level2_6 |   Requesting VC 2 at output 14 (in_pri: 0, out_pri: 0).
6 | network_0/router_level2_6 |   Requesting VC 3 at output 14 (in_pri: 0, out_pri: 0).
6 | network_0/router_level2_6/vc_allocator | Input requests = [ 4 -> [ 52@0 53@0 54@0 55@0 ]  28 -> [ 56@0 57@0 58@0 59@0 ]  ], output requests = [ 52 -> [ 4@0 ]  53 -> [ 4@0 ]  54 -> [ 4@0 ]  55 -> [ 4@0 ]  56 -> [ 28@0 ]  57 -> [ 28@0 ]  58 -> [ 28@0 ]  59 -> [ 28@0 ]  ].
6 | network_0/router_level2_6/vc_allocator | Input grants = [ 4 -> 52  28 -> 56  ], output grants = [ 52 -> 4  56 -> 28  ].
6 | network_0/router_level2_6 | Assigning VC 0 at output 14 to VC 0 at input 7.
6 | network_0/router_level2_6 | Completed VC allocation for VC 0 at input 7 (front: 2).
6 | network_0/router_level2_6 |   Acquiring assigned VC 0 at output 14.
6 | network_0/router_level2_6/buf_7/vc_0 | Changing state from vc_alloc to active.
6 | network_0/router_level2_8 | Adding flit 10 to VC 0 at input 7 (state: idle, empty).
6 | network_0/router_level2_8 | Using precomputed lookahead routing information for VC 0 at input 7 (front: 10).
6 | network_0/router_level2_8/buf_7/vc_0 | Changing state from idle to vc_alloc.
6 | network_0/router_level2_8 | Beginning VC allocation for VC 0 at input 7 (front: 10).
6 | network_0/router_level2_8 |   Requesting VC 0 at output 11 (in_pri: 0, out_pri: 0).
6 | network_0/router_level2_8 |   Requesting VC 1 at output 11 (in_pri: 0, out_pri: 0).
6 | network_0/router_level2_8 |   Requesting VC 2 at output 11 (in_pri: 0, out_pri: 0).
6 | network_0/router_level2_8 |   Requesting VC 3 at output 11 (in_pri: 0, out_pri: 0).
6 | network_0/router_level2_8/vc_allocator | Input requests = [ 28 -> [ 44@0 45@0 46@0 47@0 ]  ], output requests = [ 44 -> [ 28@0 ]  45 -> [ 28@0 ]  46 -> [ 28@0 ]  47 -> [ 28@0 ]  ].
6 | network_0/router_level2_8/vc_allocator | Input grants = [ 28 -> 44  ], output grants = [ 44 -> 28  ].
6 | network_0/router_level2_8 | Assigning VC 0 at output 11 to VC 0 at input 7.
6 | network_0/router_level2_8 | Completed VC allocation for VC 0 at input 7 (front: 10).
6 | network_0/router_level2_8 |   Acquiring assigned VC 0 at output 11.
6 | network_0/router_level2_8/buf_7/vc_0 | Changing state from vc_alloc to active.
6 | network_0/router_level2_10 | Adding flit 6 to VC 0 at input 4 (state: idle, empty).
6 | network_0/router_level2_10 | Using precomputed lookahead routing information for VC 0 at input 4 (front: 6).
6 | network_0/router_level2_10/buf_4/vc_0 | Changing state from idle to vc_alloc.
6 | network_0/router_level2_10 | Beginning VC allocation for VC 0 at input 4 (front: 6).
6 | network_0/router_level2_10 |   Requesting VC 0 at output 10 (in_pri: 0, out_pri: 0).
6 | network_0/router_level2_10 |   Requesting VC 1 at output 10 (in_pri: 0, out_pri: 0).
6 | network_0/router_level2_10 |   Requesting VC 2 at output 10 (in_pri: 0, out_pri: 0).
6 | network_0/router_level2_10 |   Requesting VC 3 at output 10 (in_pri: 0, out_pri: 0).
6 | network_0/router_level2_10/vc_allocator | Input requests = [ 16 -> [ 40@0 41@0 42@0 43@0 ]  ], output requests = [ 40 -> [ 16@0 ]  41 -> [ 16@0 ]  42 -> [ 16@0 ]  43 -> [ 16@0 ]  ].
6 | network_0/router_level2_10/vc_allocator | Input grants = [ 16 -> 40  ], output grants = [ 40 -> 16  ].
6 | network_0/router_level2_10 | Assigning VC 0 at output 10 to VC 0 at input 4.
6 | network_0/router_level2_10 | Completed VC allocation for VC 0 at input 4 (front: 6).
6 | network_0/router_level2_10 |   Acquiring assigned VC 0 at output 10.
6 | network_0/router_level2_10/buf_4/vc_0 | Changing state from vc_alloc to active.
6 | network_0/router_level2_11 | Adding flit 4 to VC 0 at input 2 (state: idle, empty).
6 | network_0/router_level2_11 | Using precomputed lookahead routing information for VC 0 at input 2 (front: 4).
6 | network_0/router_level2_11/buf_2/vc_0 | Changing state from idle to vc_alloc.
6 | network_0/router_level2_11 | Adding flit 5 to VC 0 at input 3 (state: idle, empty).
6 | network_0/router_level2_11 | Using precomputed lookahead routing information for VC 0 at input 3 (front: 5).
6 | network_0/router_level2_11/buf_3/vc_0 | Changing state from idle to vc_alloc.
6 | network_0/router_level2_11 | Adding flit 9 to VC 0 at input 6 (state: idle, empty).
6 | network_0/router_level2_11 | Using precomputed lookahead routing information for VC 0 at input 6 (front: 9).
6 | network_0/router_level2_11/buf_6/vc_0 | Changing state from idle to vc_alloc.
6 | network_0/router_level2_11 | Beginning VC allocation for VC 0 at input 2 (front: 4).
6 | network_0/router_level2_11 |   Requesting VC 0 at output 15 (in_pri: 0, out_pri: 0).
6 | network_0/router_level2_11 |   Requesting VC 1 at output 15 (in_pri: 0, out_pri: 0).
6 | network_0/router_level2_11 |   Requesting VC 2 at output 15 (in_pri: 0, out_pri: 0).
6 | network_0/router_level2_11 |   Requesting VC 3 at output 15 (in_pri: 0, out_pri: 0).
6 | network_0/router_level2_11 | Beginning VC allocation for VC 0 at input 3 (front: 5).
6 | network_0/router_level2_11 |   Requesting VC 0 at output 14 (in_pri: 0, out_pri: 0).
6 | network_0/router_level2_11 |   Requesting VC 1 at output 14 (in_pri: 0, out_pri: 0).
6 | network_0/router_level2_11 |   Requesting VC 2 at output 14 (in_pri: 0, out_pri: 0).
6 | network_0/router_level2_11 |   Requesting VC 3 at output 14 (in_pri: 0, out_pri: 0).
6 | network_0/router_level2_11 | Beginning VC allocation for VC 0 at input 6 (front: 9).
6 | network_0/router_level2_11 |   Requesting VC 0 at output 8 (in_pri: 0, out_pri: 0).
6 | network_0/router_level2_11 |   Requesting VC 1 at output 8 (in_pri: 0, out_pri: 0).
6 | network_0/router_level2_11 |   Requesting VC 2 at output 8 (in_pri: 0, out_pri: 0).
6 | network_0/router_level2_11 |   Requesting VC 3 at output 8 (in_pri: 0, out_pri: 0).
6 | network_0/router_level2_11/vc_allocator | Input requests = [ 8 -> [ 60@0 61@0 62@0 63@0 ]  12 -> [ 56@0 57@0 58@0 59@0 ]  24 -> [ 32@0 33@0 34@0 35@0 ]  ], output requests = [ 32 -> [ 24@0 ]  33 -> [ 24@0 ]  34 -> [ 24@0 ]  35 -> [ 24@0 ]  56 -> [ 12@0 ]  57 -> [ 12@0 ]  58 -> [ 12@0 ]  59 -> [ 12@0 ]  60 -> [ 8@0 ]  61 -> [ 8@0 ]  62 -> [ 8@0 ]  63 -> [ 8@0 ]  ].
6 | network_0/router_level2_11/vc_allocator | Input grants = [ 8 -> 60  12 -> 56  24 -> 32  ], output grants = [ 32 -> 24  56 -> 12  60 -> 8  ].
6 | network_0/router_level2_11 | Assigning VC 0 at output 15 to VC 0 at input 2.
6 | network_0/router_level2_11 | Assigning VC 0 at output 14 to VC 0 at input 3.
6 | network_0/router_level2_11 | Assigning VC 0 at output 8 to VC 0 at input 6.
6 | network_0/router_level2_11 | Completed VC allocation for VC 0 at input 2 (front: 4).
6 | network_0/router_level2_11 |   Acquiring assigned VC 0 at output 15.
6 | network_0/router_level2_11/buf_2/vc_0 | Changing state from vc_alloc to active.
6 | network_0/router_level2_11 | Completed VC allocation for VC 0 at input 3 (front: 5).
6 | network_0/router_level2_11 |   Acquiring assigned VC 0 at output 14.
6 | network_0/router_level2_11/buf_3/vc_0 | Changing state from vc_alloc to active.
6 | network_0/router_level2_11 | Completed VC allocation for VC 0 at input 6 (front: 9).
6 | network_0/router_level2_11 |   Acquiring assigned VC 0 at output 8.
6 | network_0/router_level2_11/buf_6/vc_0 | Changing state from vc_alloc to active.
6 | network_0/router_level2_12 | Adding flit 7 to VC 0 at input 4 (state: idle, empty).
6 | network_0/router_level2_12 | Using precomputed lookahead routing information for VC 0 at input 4 (front: 7).
6 | network_0/router_level2_12/buf_4/vc_0 | Changing state from idle to vc_alloc.
6 | network_0/router_level2_12 | Beginning VC allocation for VC 0 at input 4 (front: 7).
6 | network_0/router_level2_12 |   Requesting VC 0 at output 11 (in_pri: 0, out_pri: 0).
6 | network_0/router_level2_12 |   Requesting VC 1 at output 11 (in_pri: 0, out_pri: 0).
6 | network_0/router_level2_12 |   Requesting VC 2 at output 11 (in_pri: 0, out_pri: 0).
6 | network_0/router_level2_12 |   Requesting VC 3 at output 11 (in_pri: 0, out_pri: 0).
6 | network_0/router_level2_12/vc_allocator | Input requests = [ 16 -> [ 44@0 45@0 46@0 47@0 ]  ], output requests = [ 44 -> [ 16@0 ]  45 -> [ 16@0 ]  46 -> [ 16@0 ]  47 -> [ 16@0 ]  ].
6 | network_0/router_level2_12/vc_allocator | Input grants = [ 16 -> 44  ], output grants = [ 44 -> 16  ].
6 | network_0/router_level2_12 | Assigning VC 0 at output 11 to VC 0 at input 4.
6 | network_0/router_level2_12 | Completed VC allocation for VC 0 at input 4 (front: 7).
6 | network_0/router_level2_12 |   Acquiring assigned VC 0 at output 11.
6 | network_0/router_level2_12/buf_4/vc_0 | Changing state from vc_alloc to active.
6 | network_0/router_level2_13 | Adding flit 8 to VC 0 at input 5 (state: idle, empty).
6 | network_0/router_level2_13 | Using precomputed lookahead routing information for VC 0 at input 5 (front: 8).
6 | network_0/router_level2_13/buf_5/vc_0 | Changing state from idle to vc_alloc.
6 | network_0/router_level2_13 | Beginning VC allocation for VC 0 at input 5 (front: 8).
6 | network_0/router_level2_13 |   Requesting VC 0 at output 12 (in_pri: 0, out_pri: 0).
6 | network_0/router_level2_13 |   Requesting VC 1 at output 12 (in_pri: 0, out_pri: 0).
6 | network_0/router_level2_13 |   Requesting VC 2 at output 12 (in_pri: 0, out_pri: 0).
6 | network_0/router_level2_13 |   Requesting VC 3 at output 12 (in_pri: 0, out_pri: 0).
6 | network_0/router_level2_13/vc_allocator | Input requests = [ 20 -> [ 48@0 49@0 50@0 51@0 ]  ], output requests = [ 48 -> [ 20@0 ]  49 -> [ 20@0 ]  50 -> [ 20@0 ]  51 -> [ 20@0 ]  ].
6 | network_0/router_level2_13/vc_allocator | Input grants = [ 20 -> 48  ], output grants = [ 48 -> 20  ].
6 | network_0/router_level2_13 | Assigning VC 0 at output 12 to VC 0 at input 5.
6 | network_0/router_level2_13 | Completed VC allocation for VC 0 at input 5 (front: 8).
6 | network_0/router_level2_13 |   Acquiring assigned VC 0 at output 12.
6 | network_0/router_level2_13/buf_5/vc_0 | Changing state from vc_alloc to active.
6 | network_0/router_level2_14 | Adding flit 3 to VC 0 at input 1 (state: idle, empty).
6 | network_0/router_level2_14 | Using precomputed lookahead routing information for VC 0 at input 1 (front: 3).
6 | network_0/router_level2_14/buf_1/vc_0 | Changing state from idle to vc_alloc.
6 | network_0/router_level2_14 | Beginning VC allocation for VC 0 at input 1 (front: 3).
6 | network_0/router_level2_14 |   Requesting VC 0 at output 8 (in_pri: 0, out_pri: 0).
6 | network_0/router_level2_14 |   Requesting VC 1 at output 8 (in_pri: 0, out_pri: 0).
6 | network_0/router_level2_14 |   Requesting VC 2 at output 8 (in_pri: 0, out_pri: 0).
6 | network_0/router_level2_14 |   Requesting VC 3 at output 8 (in_pri: 0, out_pri: 0).
6 | network_0/router_level2_14/vc_allocator | Input requests = [ 4 -> [ 32@0 33@0 34@0 35@0 ]  ], output requests = [ 32 -> [ 4@0 ]  33 -> [ 4@0 ]  34 -> [ 4@0 ]  35 -> [ 4@0 ]  ].
6 | network_0/router_level2_14/vc_allocator | Input grants = [ 4 -> 32  ], output grants = [ 32 -> 4  ].
6 | network_0/router_level2_14 | Assigning VC 0 at output 8 to VC 0 at input 1.
6 | network_0/router_level2_14 | Completed VC allocation for VC 0 at input 1 (front: 3).
6 | network_0/router_level2_14 |   Acquiring assigned VC 0 at output 8.
6 | network_0/router_level2_14/buf_1/vc_0 | Changing state from vc_alloc to active.
7 | network_0/router_level2_1 | Beginning switch allocation for VC 0 at input 4 (front: 1).
7 | network_0/router_level2_1 |   Requesting output 12.0 (non-spec, pri: 0).
7 | network_0/router_level2_1/sw_allocator | Input requests = [ 4 -> [ 12@0 ]  ], output requests = [ 12 -> [ 4@0 ]  ].
7 | network_0/router_level2_1/sw_allocator | Input grants = [ 4 -> 12  ], output grants = [ 12 -> 4  ].
7 | network_0/router_level2_1 | Assigning output 12.0 to VC 0 at input 4.0.
7 | network_0/router_level2_1 | Completed switch allocation for VC 0 at input 4 (front: 1).
7 | network_0/router_level2_1 |   Scheduling switch connection from input 4.0 to output 12.0.
7 | network_0/router_level2_1 | Updating lookahead routing information for flit 1.
7 | network_0/router_level2_6 | Beginning switch allocation for VC 0 at input 7 (front: 2).
7 | network_0/router_level2_6 |   Requesting output 14.0 (non-spec, pri: 0).
7 | network_0/router_level2_6/sw_allocator | Input requests = [ 1 -> [ 13@0 ]  7 -> [ 14@0 ]  ], output requests = [ 13 -> [ 1@0 ]  14 -> [ 7@0 ]  ].
7 | network_0/router_level2_6/sw_allocator | Input grants = [ 1 -> 13  7 -> 14  ], output grants = [ 13 -> 1  14 -> 7  ].
7 | network_0/router_level2_6 | Assigning output 14.0 to VC 0 at input 7.0.
7 | network_0/router_level2_6 | Completed switch allocation for VC 0 at input 7 (front: 2).
7 | network_0/router_level2_6 |   Scheduling switch connection from input 7.0 to output 14.0.
7 | network_0/router_level2_6 | Updating lookahead routing information for flit 2.
7 | network_0/router_level2_8 | Beginning switch allocation for VC 0 at input 7 (front: 10).
7 | network_0/router_level2_8 |   Requesting output 11.0 (non-spec, pri: 0).
7 | network_0/router_level2_8/sw_allocator | Input requests = [ 7 -> [ 11@0 ]  ], output requests = [ 11 -> [ 7@0 ]  ].
7 | network_0/router_level2_8/sw_allocator | Input grants = [ 7 -> 11  ], output grants = [ 11 -> 7  ].
7 | network_0/router_level2_8 | Assigning output 11.0 to VC 0 at input 7.0.
7 | network_0/router_level2_8 | Completed switch allocation for VC 0 at input 7 (front: 10).
7 | network_0/router_level2_8 |   Scheduling switch connection from input 7.0 to output 11.0.
7 | network_0/router_level2_8 | Updating lookahead routing information for flit 10.
7 | network_0/router_level2_10 | Beginning switch allocation for VC 0 at input 4 (front: 6).
7 | network_0/router_level2_10 |   Requesting output 10.0 (non-spec, pri: 0).
7 | network_0/router_level2_10/sw_allocator | Input requests = [ 4 -> [ 10@0 ]  ], output requests = [ 10 -> [ 4@0 ]  ].
7 | network_0/router_level2_10/sw_allocator | Input grants = [ 4 -> 10  ], output grants = [ 10 -> 4  ].
7 | network_0/router_level2_10 | Assigning output 10.0 to VC 0 at input 4.0.
7 | network_0/router_level2_10 | Completed switch allocation for VC 0 at input 4 (front: 6).
7 | network_0/router_level2_10 |   Scheduling switch connection from input 4.0 to output 10.0.
7 | network_0/router_level2_10 | Updating lookahead routing information for flit 6.
7 | network_0/router_level2_11 | Beginning switch allocation for VC 0 at input 2 (front: 4).
7 | network_0/router_level2_11 |   Requesting output 15.0 (non-spec, pri: 0).
7 | network_0/router_level2_11 | Beginning switch allocation for VC 0 at input 3 (front: 5).
7 | network_0/router_level2_11 |   Requesting output 14.0 (non-spec, pri: 0).
7 | network_0/router_level2_11 | Beginning switch allocation for VC 0 at input 6 (front: 9).
7 | network_0/router_level2_11 |   Requesting output 8.0 (non-spec, pri: 0).
7 | network_0/router_level2_11/sw_allocator | Input requests = [ 2 -> [ 15@0 ]  3 -> [ 14@0 ]  6 -> [ 8@0 ]  ], output requests = [ 8 -> [ 6@0 ]  14 -> [ 3@0 ]  15 -> [ 2@0 ]  ].
7 | network_0/router_level2_11/sw_allocator | Input grants = [ 2 -> 15  3 -> 14  6 -> 8  ], output grants = [ 8 -> 6  14 -> 3  15 -> 2  ].
7 | network_0/router_level2_11 | Assigning output 15.0 to VC 0 at input 2.0.
7 | network_0/router_level2_11 | Assigning output 14.0 to VC 0 at input 3.0.
7 | network_0/router_level2_11 | Assigning output 8.0 to VC 0 at input 6.0.
7 | network_0/router_level2_11 | Completed switch allocation for VC 0 at input 2 (front: 4).
7 | network_0/router_level2_11 |   Scheduling switch connection from input 2.0 to output 15.0.
7 | network_0/router_level2_11 | Updating lookahead routing information for flit 4.
7 | network_0/router_level2_11 | Completed switch allocation for VC 0 at input 3 (front: 5).
7 | network_0/router_level2_11 |   Scheduling switch connection from input 3.0 to output 14.0.
7 | network_0/router_level2_11 | Updating lookahead routing information for flit 5.
7 | network_0/router_level2_11 | Completed switch allocation for VC 0 at input 6 (front: 9).
7 | network_0/router_level2_11 |   Scheduling switch connection from input 6.0 to output 8.0.
7 | network_0/router_level2_11 | Updating lookahead routing information for flit 9.
7 | network_0/router_level2_12 | Beginning switch allocation for VC 0 at input 4 (front: 7).
7 | network_0/router_level2_12 |   Requesting output 11.0 (non-spec, pri: 0).
7 | network_0/router_level2_12/sw_allocator | Input requests = [ 4 -> [ 11@0 ]  ], output requests = [ 11 -> [ 4@0 ]  ].
7 | network_0/router_level2_12/sw_allocator | Input grants = [ 4 -> 11  ], output grants = [ 11 -> 4  ].
7 | network_0/router_level2_12 | Assigning output 11.0 to VC 0 at input 4.0.
7 | network_0/router_level2_12 | Completed switch allocation for VC 0 at input 4 (front: 7).
7 | network_0/router_level2_12 |   Scheduling switch connection from input 4.0 to output 11.0.
7 | network_0/router_level2_12 | Updating lookahead routing information for flit 7.
7 | network_0/router_level2_13 | Beginning switch allocation for VC 0 at input 5 (front: 8).
7 | network_0/router_level2_13 |   Requesting output 12.0 (non-spec, pri: 0).
7 | network_0/router_level2_13/sw_allocator | Input requests = [ 5 -> [ 12@0 ]  ], output requests = [ 12 -> [ 5@0 ]  ].
7 | network_0/router_level2_13/sw_allocator | Input grants = [ 5 -> 12  ], output grants = [ 12 -> 5  ].
7 | network_0/router_level2_13 | Assigning output 12.0 to VC 0 at input 5.0.
7 | network_0/router_level2_13 | Completed switch allocation for VC 0 at input 5 (front: 8).
7 | network_0/router_level2_13 |   Scheduling switch connection from input 5.0 to output 12.0.
7 | network_0/router_level2_13 | Updating lookahead routing information for flit 8.
7 | network_0/router_level2_14 | Beginning switch allocation for VC 0 at input 1 (front: 3).
7 | network_0/router_level2_14 |   Requesting output 8.0 (non-spec, pri: 0).
7 | network_0/router_level2_14/sw_allocator | Input requests = [ 1 -> [ 8@0 ]  ], output requests = [ 8 -> [ 1@0 ]  ].
7 | network_0/router_level2_14/sw_allocator | Input grants = [ 1 -> 8  ], output grants = [ 8 -> 1  ].
7 | network_0/router_level2_14 | Assigning output 8.0 to VC 0 at input 1.0.
7 | network_0/router_level2_14 | Completed switch allocation for VC 0 at input 1 (front: 3).
7 | network_0/router_level2_14 |   Scheduling switch connection from input 1.0 to output 8.0.
7 | network_0/router_level2_14 | Updating lookahead routing information for flit 3.
8 | network_0/router_level2_1 | Beginning crossbar traversal for flit 1 from input 4.0 to output 12.0.
8 | network_0/router_level2_1 | Completed crossbar traversal for flit 1 from input 4.0 to output 12.0.
8 | network_0/router_level2_1 | Buffering flit 1 at output 12.
8 | network_0/router_level2_6 | Beginning crossbar traversal for flit 2 from input 7.0 to output 14.0.
8 | network_0/router_level2_6 | Completed crossbar traversal for flit 2 from input 7.0 to output 14.0.
8 | network_0/router_level2_6 | Buffering flit 2 at output 14.
8 | network_0/router_level2_8 | Beginning crossbar traversal for flit 10 from input 7.0 to output 11.0.
8 | network_0/router_level2_8 | Completed crossbar traversal for flit 10 from input 7.0 to output 11.0.
8 | network_0/router_level2_8 | Buffering flit 10 at output 11.
8 | network_0/router_level2_10 | Beginning crossbar traversal for flit 6 from input 4.0 to output 10.0.
8 | network_0/router_level2_10 | Completed crossbar traversal for flit 6 from input 4.0 to output 10.0.
8 | network_0/router_level2_10 | Buffering flit 6 at output 10.
8 | network_0/router_level2_11 | Beginning crossbar traversal for flit 4 from input 2.0 to output 15.0.
8 | network_0/router_level2_11 | Beginning crossbar traversal for flit 5 from input 3.0 to output 14.0.
8 | network_0/router_level2_11 | Beginning crossbar traversal for flit 9 from input 6.0 to output 8.0.
8 | network_0/router_level2_11 | Completed crossbar traversal for flit 4 from input 2.0 to output 15.0.
8 | network_0/router_level2_11 | Buffering flit 4 at output 15.
8 | network_0/router_level2_11 | Completed crossbar traversal for flit 5 from input 3.0 to output 14.0.
8 | network_0/router_level2_11 | Buffering flit 5 at output 14.
8 | network_0/router_level2_11 | Completed crossbar traversal for flit 9 from input 6.0 to output 8.0.
8 | network_0/router_level2_11 | Buffering flit 9 at output 8.
8 | network_0/router_level2_12 | Beginning crossbar traversal for flit 7 from input 4.0 to output 11.0.
8 | network_0/router_level2_12 | Completed crossbar traversal for flit 7 from input 4.0 to output 11.0.
8 | network_0/router_level2_12 | Buffering flit 7 at output 11.
8 | network_0/router_level2_13 | Beginning crossbar traversal for flit 8 from input 5.0 to output 12.0.
8 | network_0/router_level2_13 | Completed crossbar traversal for flit 8 from input 5.0 to output 12.0.
8 | network_0/router_level2_13 | Buffering flit 8 at output 12.
8 | network_0/router_level2_14 | Beginning crossbar traversal for flit 3 from input 1.0 to output 8.0.
8 | network_0/router_level2_14 | Completed crossbar traversal for flit 3 from input 1.0 to output 8.0.
8 | network_0/router_level2_14 | Buffering flit 3 at output 8.
8 | network_0/router_level2_1 | Sending flit 1 to channel at output 12.
8 | network_0/router_level2_6 | Sending flit 2 to channel at output 14.
8 | network_0/router_level2_8 | Sending flit 10 to channel at output 11.
8 | network_0/router_level2_10 | Sending flit 6 to channel at output 10.
8 | network_0/router_level2_11 | Sending flit 9 to channel at output 8.
8 | network_0/router_level2_11 | Sending flit 5 to channel at output 14.
8 | network_0/router_level2_11 | Sending flit 4 to channel at output 15.
8 | network_0/router_level2_12 | Sending flit 7 to channel at output 11.
8 | network_0/router_level2_13 | Sending flit 8 to channel at output 12.
8 | network_0/router_level2_14 | Sending flit 3 to channel at output 8.
9 | network_0/network_0_fchan_12300 | Beginning channel traversal for flit 1 with delay 1.
9 | network_0/network_0_fchan_12342 | Beginning channel traversal for flit 2 with delay 1.
9 | network_0/network_0_fchan_12355 | Beginning channel traversal for flit 10 with delay 1.
9 | network_0/network_0_fchan_12370 | Beginning channel traversal for flit 6 with delay 1.
9 | network_0/network_0_fchan_12376 | Beginning channel traversal for flit 9 with delay 1.
9 | network_0/network_0_fchan_12382 | Beginning channel traversal for flit 5 with delay 1.
9 | network_0/network_0_fchan_12383 | Beginning channel traversal for flit 4 with delay 1.
9 | network_0/network_0_fchan_12387 | Beginning channel traversal for flit 7 with delay 1.
9 | network_0/network_0_fchan_12396 | Beginning channel traversal for flit 8 with delay 1.
9 | network_0/network_0_fchan_12400 | Beginning channel traversal for flit 3 with delay 1.
9 | network_0/network_0_fchan_12300 | Completed channel traversal for flit 1.
9 | network_0/network_0_fchan_12342 | Completed channel traversal for flit 2.
9 | network_0/network_0_fchan_12355 | Completed channel traversal for flit 10.
9 | network_0/network_0_fchan_12370 | Completed channel traversal for flit 6.
9 | network_0/network_0_fchan_12376 | Completed channel traversal for flit 9.
9 | network_0/network_0_fchan_12382 | Completed channel traversal for flit 5.
9 | network_0/network_0_fchan_12383 | Completed channel traversal for flit 4.
9 | network_0/network_0_fchan_12387 | Completed channel traversal for flit 7.
9 | network_0/network_0_fchan_12396 | Completed channel traversal for flit 8.
9 | network_0/network_0_fchan_12400 | Completed channel traversal for flit 3.
10 | network_0/router_level1_3 | Received flit 9 from channel at input 1.
10 | network_0/router_level1_6 | Received flit 3 from channel at input 1.
10 | network_0/router_level1_18 | Received flit 6 from channel at input 1.
10 | network_0/router_level1_24 | Received flit 10 from channel at input 1.
10 | network_0/router_level1_28 | Received flit 7 from channel at input 1.
10 | network_0/router_level1_33 | Received flit 1 from channel at input 0.
10 | network_0/router_level1_37 | Received flit 8 from channel at input 1.
10 | network_0/router_level1_51 | Received flit 5 from channel at input 1.
10 | network_0/router_level1_54 | Received flit 2 from channel at input 0.
10 | network_0/router_level1_59 | Received flit 4 from channel at input 1.
10 | network_0/router_level1_3 | Adding flit 9 to VC 0 at input 1 (state: idle, empty).
10 | network_0/router_level1_3 | Using precomputed lookahead routing information for VC 0 at input 1 (front: 9).
10 | network_0/router_level1_3/buf_1/vc_0 | Changing state from idle to vc_alloc.
10 | network_0/router_level1_3 | Beginning VC allocation for VC 0 at input 1 (front: 9).
10 | network_0/router_level1_3 |   Requesting VC 0 at output 11 (in_pri: 0, out_pri: 0).
10 | network_0/router_level1_3 |   Requesting VC 1 at output 11 (in_pri: 0, out_pri: 0).
10 | network_0/router_level1_3 |   Requesting VC 2 at output 11 (in_pri: 0, out_pri: 0).
10 | network_0/router_level1_3 |   Requesting VC 3 at output 11 (in_pri: 0, out_pri: 0).
10 | network_0/router_level1_3/vc_allocator | Input requests = [ 4 -> [ 44@0 45@0 46@0 47@0 ]  16 -> [ 52@0 53@0 54@0 55@0 ]  ], output requests = [ 44 -> [ 4@0 ]  45 -> [ 4@0 ]  46 -> [ 4@0 ]  47 -> [ 4@0 ]  52 -> [ 16@0 ]  53 -> [ 16@0 ]  54 -> [ 16@0 ]  55 -> [ 16@0 ]  ].
10 | network_0/router_level1_3/vc_allocator | Input grants = [ 4 -> 44  16 -> 52  ], output grants = [ 44 -> 4  52 -> 16  ].
10 | network_0/router_level1_3 | Assigning VC 0 at output 11 to VC 0 at input 1.
10 | network_0/router_level1_3 | Completed VC allocation for VC 0 at input 1 (front: 9).
10 | network_0/router_level1_3 |   Acquiring assigned VC 0 at output 11.
10 | network_0/router_level1_3/buf_1/vc_0 | Changing state from vc_alloc to active.
10 | network_0/router_level1_6 | Adding flit 3 to VC 0 at input 1 (state: idle, empty).
10 | network_0/router_level1_6 | Using precomputed lookahead routing information for VC 0 at input 1 (front: 3).
10 | network_0/router_level1_6/buf_1/vc_0 | Changing state from idle to vc_alloc.
10 | network_0/router_level1_6 | Beginning VC allocation for VC 0 at input 1 (front: 3).
10 | network_0/router_level1_6 |   Requesting VC 0 at output 14 (in_pri: 0, out_pri: 0).
10 | network_0/router_level1_6 |   Requesting VC 1 at output 14 (in_pri: 0, out_pri: 0).
10 | network_0/router_level1_6 |   Requesting VC 2 at output 14 (in_pri: 0, out_pri: 0).
10 | network_0/router_level1_6 |   Requesting VC 3 at output 14 (in_pri: 0, out_pri: 0).
10 | network_0/router_level1_6/vc_allocator | Input requests = [ 4 -> [ 56@0 57@0 58@0 59@0 ]  ], output requests = [ 56 -> [ 4@0 ]  57 -> [ 4@0 ]  58 -> [ 4@0 ]  59 -> [ 4@0 ]  ].
10 | network_0/router_level1_6/vc_allocator | Input grants = [ 4 -> 56  ], output grants = [ 56 -> 4  ].
10 | network_0/router_level1_6 | Assigning VC 0 at output 14 to VC 0 at input 1.
10 | network_0/router_level1_6 | Completed VC allocation for VC 0 at input 1 (front: 3).
10 | network_0/router_level1_6 |   Acquiring assigned VC 0 at output 14.
10 | network_0/router_level1_6/buf_1/vc_0 | Changing state from vc_alloc to active.
10 | network_0/router_level1_18 | Adding flit 6 to VC 0 at input 1 (state: idle, empty).
10 | network_0/router_level1_18 | Using precomputed lookahead routing information for VC 0 at input 1 (front: 6).
10 | network_0/router_level1_18/buf_1/vc_0 | Changing state from idle to vc_alloc.
10 | network_0/router_level1_18 | Beginning VC allocation for VC 0 at input 1 (front: 6).
10 | network_0/router_level1_18 |   Requesting VC 0 at output 12 (in_pri: 0, out_pri: 0).
10 | network_0/router_level1_18 |   Requesting VC 1 at output 12 (in_pri: 0, out_pri: 0).
10 | network_0/router_level1_18 |   Requesting VC 2 at output 12 (in_pri: 0, out_pri: 0).
10 | network_0/router_level1_18 |   Requesting VC 3 at output 12 (in_pri: 0, out_pri: 0).
10 | network_0/router_level1_18/vc_allocator | Input requests = [ 4 -> [ 48@0 49@0 50@0 51@0 ]  16 -> [ 48@0 49@0 50@0 51@0 ]  ], output requests = [ 48 -> [ 4@0 16@0 ]  49 -> [ 4@0 16@0 ]  50 -> [ 4@0 16@0 ]  51 -> [ 4@0 16@0 ]  ].
10 | network_0/router_level1_18/vc_allocator | Input grants = [ 4 -> 48  ], output grants = [ 48 -> 4  ].
10 | network_0/router_level1_18 | Assigning VC 0 at output 12 to VC 0 at input 1.
10 | network_0/router_level1_18 | Completed VC allocation for VC 0 at input 1 (front: 6).
10 | network_0/router_level1_18 |   Acquiring assigned VC 0 at output 12.
10 | network_0/router_level1_18/buf_1/vc_0 | Changing state from vc_alloc to active.
10 | network_0/router_level1_24 | Adding flit 10 to VC 0 at input 1 (state: idle, empty).
10 | network_0/router_level1_24 | Using precomputed lookahead routing information for VC 0 at input 1 (front: 10).
10 | network_0/router_level1_24/buf_1/vc_0 | Changing state from idle to vc_alloc.
10 | network_0/router_level1_24 | Beginning VC allocation for VC 0 at input 1 (front: 10).
10 | network_0/router_level1_24 |   Requesting VC 0 at output 15 (in_pri: 0, out_pri: 0).
10 | network_0/router_level1_24 |   Requesting VC 1 at output 15 (in_pri: 0, out_pri: 0).
10 | network_0/router_level1_24 |   Requesting VC 2 at output 15 (in_pri: 0, out_pri: 0).
10 | network_0/router_level1_24 |   Requesting VC 3 at output 15 (in_pri: 0, out_pri: 0).
10 | network_0/router_level1_24/vc_allocator | Input requests = [ 4 -> [ 60@0 61@0 62@0 63@0 ]  20 -> [ 44@0 45@0 46@0 47@0 ]  28 -> [ 56@0 57@0 58@0 59@0 ]  ], output requests = [ 44 -> [ 20@0 ]  45 -> [ 20@0 ]  46 -> [ 20@0 ]  47 -> [ 20@0 ]  56 -> [ 28@0 ]  57 -> [ 28@0 ]  58 -> [ 28@0 ]  59 -> [ 28@0 ]  60 -> [ 4@0 ]  61 -> [ 4@0 ]  62 -> [ 4@0 ]  63 -> [ 4@0 ]  ].
10 | network_0/router_level1_24/vc_allocator | Input grants = [ 4 -> 60  20 -> 44  28 -> 56  ], output grants = [ 44 -> 20  56 -> 28  60 -> 4  ].
10 | network_0/router_level1_24 | Assigning VC 0 at output 15 to VC 0 at input 1.
10 | network_0/router_level1_24 | Completed VC allocation for VC 0 at input 1 (front: 10).
10 | network_0/router_level1_24 |   Acquiring assigned VC 0 at output 15.
10 | network_0/router_level1_24/buf_1/vc_0 | Changing state from vc_alloc to active.
10 | network_0/router_level1_28 | Adding flit 7 to VC 0 at input 1 (state: idle, empty).
10 | network_0/router_level1_28 | Using precomputed lookahead routing information for VC 0 at input 1 (front: 7).
10 | network_0/router_level1_28/buf_1/vc_0 | Changing state from idle to vc_alloc.
10 | network_0/router_level1_28 | Beginning VC allocation for VC 0 at input 1 (front: 7).
10 | network_0/router_level1_28 |   Requesting VC 0 at output 15 (in_pri: 0, out_pri: 0).
10 | network_0/router_level1_28 |   Requesting VC 1 at output 15 (in_pri: 0, out_pri: 0).
10 | network_0/router_level1_28 |   Requesting VC 2 at output 15 (in_pri: 0, out_pri: 0).
10 | network_0/router_level1_28 |   Requesting VC 3 at output 15 (in_pri: 0, out_pri: 0).
10 | network_0/router_level1_28/vc_allocator | Input requests = [ 4 -> [ 60@0 61@0 62@0 63@0 ]  16 -> [ 56@0 57@0 58@0 59@0 ]  ], output requests = [ 56 -> [ 16@0 ]  57 -> [ 16@0 ]  58 -> [ 16@0 ]  59 -> [ 16@0 ]  60 -> [ 4@0 ]  61 -> [ 4@0 ]  62 -> [ 4@0 ]  63 -> [ 4@0 ]  ].
10 | network_0/router_level1_28/vc_allocator | Input grants = [ 4 -> 60  16 -> 56  ], output grants = [ 56 -> 16  60 -> 4  ].
10 | network_0/router_level1_28 | Assigning VC 0 at output 15 to VC 0 at input 1.
10 | network_0/router_level1_28 | Completed VC allocation for VC 0 at input 1 (front: 7).
10 | network_0/router_level1_28 |   Acquiring assigned VC 0 at output 15.
10 | network_0/router_level1_28/buf_1/vc_0 | Changing state from vc_alloc to active.
10 | network_0/router_level1_33 | Adding flit 1 to VC 0 at input 0 (state: idle, empty).
10 | network_0/router_level1_33 | Using precomputed lookahead routing information for VC 0 at input 0 (front: 1).
10 | network_0/router_level1_33/buf_0/vc_0 | Changing state from idle to vc_alloc.
10 | network_0/router_level1_33 | Beginning VC allocation for VC 0 at input 0 (front: 1).
10 | network_0/router_level1_33 |   Requesting VC 0 at output 13 (in_pri: 0, out_pri: 0).
10 | network_0/router_level1_33 |   Requesting VC 1 at output 13 (in_pri: 0, out_pri: 0).
10 | network_0/router_level1_33 |   Requesting VC 2 at output 13 (in_pri: 0, out_pri: 0).
10 | network_0/router_level1_33 |   Requesting VC 3 at output 13 (in_pri: 0, out_pri: 0).
10 | network_0/router_level1_33/vc_allocator | Input requests = [ 0 -> [ 52@0 53@0 54@0 55@0 ]  12 -> [ 32@0 33@0 34@0 35@0 ]  ], output requests = [ 32 -> [ 12@0 ]  33 -> [ 12@0 ]  34 -> [ 12@0 ]  35 -> [ 12@0 ]  52 -> [ 0@0 ]  53 -> [ 0@0 ]  54 -> [ 0@0 ]  55 -> [ 0@0 ]  ].
10 | network_0/router_level1_33/vc_allocator | Input grants = [ 0 -> 52  12 -> 32  ], output grants = [ 32 -> 12  52 -> 0  ].
10 | network_0/router_level1_33 | Assigning VC 0 at output 13 to VC 0 at input 0.
10 | network_0/router_level1_33 | Completed VC allocation for VC 0 at input 0 (front: 1).
10 | network_0/router_level1_33 |   Acquiring assigned VC 0 at output 13.
10 | network_0/router_level1_33/buf_0/vc_0 | Changing state from vc_alloc to active.
10 | network_0/router_level1_37 | Adding flit 8 to VC 0 at input 1 (state: idle, empty).
10 | network_0/router_level1_37 | Using precomputed lookahead routing information for VC 0 at input 1 (front: 8).
10 | network_0/router_level1_37/buf_1/vc_0 | Changing state from idle to vc_alloc.
10 | network_0/router_level1_37 | Beginning VC allocation for VC 0 at input 1 (front: 8).
10 | network_0/router_level1_37 |   Requesting VC 0 at output 9 (in_pri: 0, out_pri: 0).
10 | network_0/router_level1_37 |   Requesting VC 1 at output 9 (in_pri: 0, out_pri: 0).
10 | network_0/router_level1_37 |   Requesting VC 2 at output 9 (in_pri: 0, out_pri: 0).
10 | network_0/router_level1_37 |   Requesting VC 3 at output 9 (in_pri: 0, out_pri: 0).
10 | network_0/router_level1_37/vc_allocator | Input requests = [ 4 -> [ 36@0 37@0 38@0 39@0 ]  ], output requests = [ 36 -> [ 4@0 ]  37 -> [ 4@0 ]  38 -> [ 4@0 ]  39 -> [ 4@0 ]  ].
10 | network_0/router_level1_37/vc_allocator | Input grants = [ 4 -> 36  ], output grants = [ 36 -> 4  ].
10 | network_0/router_level1_37 | Assigning VC 0 at output 9 to VC 0 at input 1.
10 | network_0/router_level1_37 | Completed VC allocation for VC 0 at input 1 (front: 8).
10 | network_0/router_level1_37 |   Acquiring assigned VC 0 at output 9.
10 | network_0/router_level1_37/buf_1/vc_0 | Changing state from vc_alloc to active.
10 | network_0/router_level1_51 | Adding flit 5 to VC 0 at input 1 (state: idle, empty).
10 | network_0/router_level1_51 | Using precomputed lookahead routing information for VC 0 at input 1 (front: 5).
10 | network_0/router_level1_51/buf_1/vc_0 | Changing state from idle to vc_alloc.
10 | network_0/router_level1_51 | Beginning VC allocation for VC 0 at input 1 (front: 5).
10 | network_0/router_level1_51 |   Requesting VC 0 at output 9 (in_pri: 0, out_pri: 0).
10 | network_0/router_level1_51 |   Requesting VC 1 at output 9 (in_pri: 0, out_pri: 0).
10 | network_0/router_level1_51 |   Requesting VC 2 at output 9 (in_pri: 0, out_pri: 0).
10 | network_0/router_level1_51 |   Requesting VC 3 at output 9 (in_pri: 0, out_pri: 0).
10 | network_0/router_level1_51/vc_allocator | Input requests = [ 4 -> [ 36@0 37@0 38@0 39@0 ]  ], output requests = [ 36 -> [ 4@0 ]  37 -> [ 4@0 ]  38 -> [ 4@0 ]  39 -> [ 4@0 ]  ].
10 | network_0/router_level1_51/vc_allocator | Input grants = [ 4 -> 36  ], output grants = [ 36 -> 4  ].
10 | network_0/router_level1_51 | Assigning VC 0 at output 9 to VC 0 at input 1.
10 | network_0/router_level1_51 | Completed VC allocation for VC 0 at input 1 (front: 5).
10 | network_0/router_level1_51 |   Acquiring assigned VC 0 at output 9.
10 | network_0/router_level1_51/buf_1/vc_0 | Changing state from vc_alloc to active.
10 | network_0/router_level1_54 | Adding flit 2 to VC 0 at input 0 (state: idle, empty).
10 | network_0/router_level1_54 | Using precomputed lookahead routing information for VC 0 at input 0 (front: 2).
10 | network_0/router_level1_54/buf_0/vc_0 | Changing state from idle to vc_alloc.
10 | network_0/router_level1_54 | Beginning VC allocation for VC 0 at input 0 (front: 2).
10 | network_0/router_level1_54 |   Requesting VC 0 at output 12 (in_pri: 0, out_pri: 0).
10 | network_0/router_level1_54 |   Requesting VC 1 at output 12 (in_pri: 0, out_pri: 0).
10 | network_0/router_level1_54 |   Requesting VC 2 at output 12 (in_pri: 0, out_pri: 0).
10 | network_0/router_level1_54 |   Requesting VC 3 at output 12 (in_pri: 0, out_pri: 0).
10 | network_0/router_level1_54/vc_allocator | Input requests = [ 0 -> [ 48@0 49@0 50@0 51@0 ]  ], output requests = [ 48 -> [ 0@0 ]  49 -> [ 0@0 ]  50 -> [ 0@0 ]  51 -> [ 0@0 ]  ].
10 | network_0/router_level1_54/vc_allocator | Input grants = [ 0 -> 48  ], output grants = [ 48 -> 0  ].
10 | network_0/router_level1_54 | Assigning VC 0 at output 12 to VC 0 at input 0.
10 | network_0/router_level1_54 | Completed VC allocation for VC 0 at input 0 (front: 2).
10 | network_0/router_level1_54 |   Acquiring assigned VC 0 at output 12.
10 | network_0/router_level1_54/buf_0/vc_0 | Changing state from vc_alloc to active.
10 | network_0/router_level1_59 | Adding flit 4 to VC 0 at input 1 (state: idle, empty).
10 | network_0/router_level1_59 | Using precomputed lookahead routing information for VC 0 at input 1 (front: 4).
10 | network_0/router_level1_59/buf_1/vc_0 | Changing state from idle to vc_alloc.
10 | network_0/router_level1_59 | Beginning VC allocation for VC 0 at input 1 (front: 4).
10 | network_0/router_level1_59 |   Requesting VC 0 at output 15 (in_pri: 0, out_pri: 0).
10 | network_0/router_level1_59 |   Requesting VC 1 at output 15 (in_pri: 0, out_pri: 0).
10 | network_0/router_level1_59 |   Requesting VC 2 at output 15 (in_pri: 0, out_pri: 0).
10 | network_0/router_level1_59 |   Requesting VC 3 at output 15 (in_pri: 0, out_pri: 0).
10 | network_0/router_level1_59/vc_allocator | Input requests = [ 4 -> [ 60@0 61@0 62@0 63@0 ]  ], output requests = [ 60 -> [ 4@0 ]  61 -> [ 4@0 ]  62 -> [ 4@0 ]  63 -> [ 4@0 ]  ].
10 | network_0/router_level1_59/vc_allocator | Input grants = [ 4 -> 60  ], output grants = [ 60 -> 4  ].
10 | network_0/router_level1_59 | Assigning VC 0 at output 15 to VC 0 at input 1.
10 | network_0/router_level1_59 | Completed VC allocation for VC 0 at input 1 (front: 4).
10 | network_0/router_level1_59 |   Acquiring assigned VC 0 at output 15.
10 | network_0/router_level1_59/buf_1/vc_0 | Changing state from vc_alloc to active.
11 | network_0/router_level1_3 | Beginning switch allocation for VC 0 at input 1 (front: 9).
11 | network_0/router_level1_3 |   Requesting output 11.0 (non-spec, pri: 0).
11 | network_0/router_level1_3/sw_allocator | Input requests = [ 1 -> [ 11@0 ]  4 -> [ 13@0 ]  ], output requests = [ 11 -> [ 1@0 ]  13 -> [ 4@0 ]  ].
11 | network_0/router_level1_3/sw_allocator | Input grants = [ 1 -> 11  4 -> 13  ], output grants = [ 11 -> 1  13 -> 4  ].
11 | network_0/router_level1_3 | Assigning output 11.0 to VC 0 at input 1.0.
11 | network_0/router_level1_3 | Completed switch allocation for VC 0 at input 1 (front: 9).
11 | network_0/router_level1_3 |   Scheduling switch connection from input 1.0 to output 11.0.
11 | network_0/router_level1_3 | Updating lookahead routing information for flit 9.
11 | network_0/router_level1_6 | Beginning switch allocation for VC 0 at input 1 (front: 3).
11 | network_0/router_level1_6 |   Requesting output 14.0 (non-spec, pri: 0).
11 | network_0/router_level1_6/sw_allocator | Input requests = [ 1 -> [ 14@0 ]  ], output requests = [ 14 -> [ 1@0 ]  ].
11 | network_0/router_level1_6/sw_allocator | Input grants = [ 1 -> 14  ], output grants = [ 14 -> 1  ].
11 | network_0/router_level1_6 | Assigning output 14.0 to VC 0 at input 1.0.
11 | network_0/router_level1_6 | Completed switch allocation for VC 0 at input 1 (front: 3).
11 | network_0/router_level1_6 |   Scheduling switch connection from input 1.0 to output 14.0.
11 | network_0/router_level1_6 | Updating lookahead routing information for flit 3.
11 | network_0/router_level1_18 | Beginning switch allocation for VC 0 at input 1 (front: 6).
11 | network_0/router_level1_18 |   Requesting output 12.0 (non-spec, pri: 0).
11 | network_0/router_level1_18/sw_allocator | Input requests = [ 1 -> [ 12@0 ]  ], output requests = [ 12 -> [ 1@0 ]  ].
11 | network_0/router_level1_18/sw_allocator | Input grants = [ 1 -> 12  ], output grants = [ 12 -> 1  ].
11 | network_0/router_level1_18 | Assigning output 12.0 to VC 0 at input 1.0.
11 | network_0/router_level1_18 | Completed switch allocation for VC 0 at input 1 (front: 6).
11 | network_0/router_level1_18 |   Scheduling switch connection from input 1.0 to output 12.0.
11 | network_0/router_level1_18 | Updating lookahead routing information for flit 6.
11 | network_0/router_level1_24 | Beginning switch allocation for VC 0 at input 1 (front: 10).
11 | network_0/router_level1_24 |   Requesting output 15.0 (non-spec, pri: 0).
11 | network_0/router_level1_24/sw_allocator | Input requests = [ 1 -> [ 15@0 ]  5 -> [ 11@0 ]  7 -> [ 14@0 ]  ], output requests = [ 11 -> [ 5@0 ]  14 -> [ 7@0 ]  15 -> [ 1@0 ]  ].
11 | network_0/router_level1_24/sw_allocator | Input grants = [ 1 -> 15  5 -> 11  7 -> 14  ], output grants = [ 11 -> 5  14 -> 7  15 -> 1  ].
11 | network_0/router_level1_24 | Assigning output 15.0 to VC 0 at input 1.0.
11 | network_0/router_level1_24 | Completed switch allocation for VC 0 at input 1 (front: 10).
11 | network_0/router_level1_24 |   Scheduling switch connection from input 1.0 to output 15.0.
11 | network_0/router_level1_24 | Updating lookahead routing information for flit 10.
11 | network_0/router_level1_28 | Beginning switch allocation for VC 0 at input 1 (front: 7).
11 | network_0/router_level1_28 |   Requesting output 15.0 (non-spec, pri: 0).
11 | network_0/router_level1_28/sw_allocator | Input requests = [ 1 -> [ 15@0 ]  4 -> [ 14@0 ]  ], output requests = [ 14 -> [ 4@0 ]  15 -> [ 1@0 ]  ].
11 | network_0/router_level1_28/sw_allocator | Input grants = [ 1 -> 15  4 -> 14  ], output grants = [ 14 -> 4  15 -> 1  ].
11 | network_0/router_level1_28 | Assigning output 15.0 to VC 0 at input 1.0.
11 | network_0/router_level1_28 | Completed switch allocation for VC 0 at input 1 (front: 7).
11 | network_0/router_level1_28 |   Scheduling switch connection from input 1.0 to output 15.0.
11 | network_0/router_level1_28 | Updating lookahead routing information for flit 7.
11 | network_0/router_level1_33 | Beginning switch allocation for VC 0 at input 0 (front: 1).
11 | network_0/router_level1_33 |   Requesting output 13.0 (non-spec, pri: 0).
11 | network_0/router_level1_33/sw_allocator | Input requests = [ 0 -> [ 13@0 ]  3 -> [ 8@0 ]  ], output requests = [ 8 -> [ 3@0 ]  13 -> [ 0@0 ]  ].
11 | network_0/router_level1_33/sw_allocator | Input grants = [ 0 -> 13  3 -> 8  ], output grants = [ 8 -> 3  13 -> 0  ].
11 | network_0/router_level1_33 | Assigning output 13.0 to VC 0 at input 0.0.
11 | network_0/router_level1_33 | Completed switch allocation for VC 0 at input 0 (front: 1).
11 | network_0/router_level1_33 |   Scheduling switch connection from input 0.0 to output 13.0.
11 | network_0/router_level1_33 | Updating lookahead routing information for flit 1.
11 | network_0/router_level1_37 | Beginning switch allocation for VC 0 at input 1 (front: 8).
11 | network_0/router_level1_37 |   Requesting output 9.0 (non-spec, pri: 0).
11 | network_0/router_level1_37/sw_allocator | Input requests = [ 1 -> [ 9@0 ]  ], output requests = [ 9 -> [ 1@0 ]  ].
11 | network_0/router_level1_37/sw_allocator | Input grants = [ 1 -> 9  ], output grants = [ 9 -> 1  ].
11 | network_0/router_level1_37 | Assigning output 9.0 to VC 0 at input 1.0.
11 | network_0/router_level1_37 | Completed switch allocation for VC 0 at input 1 (front: 8).
11 | network_0/router_level1_37 |   Scheduling switch connection from input 1.0 to output 9.0.
11 | network_0/router_level1_37 | Updating lookahead routing information for flit 8.
[...]
27 | network_0/router_level3_296 | Assigning output 1.0 to VC 0 at input 10.0.
27 | network_0/router_level3_296 | Completed switch allocation for VC 0 at input 10 (front: 6).
27 | network_0/router_level3_296 |   Scheduling switch connection from input 10.0 to output 1.0.
27 | network_0/router_level3_304 | Beginning switch allocation for VC 0 at input 12 (front: 7).
27 | network_0/router_level3_304 |   Requesting output 1.0 (non-spec, pri: 0).
27 | network_0/router_level3_304/sw_allocator | Input requests = [ 5 -> [ 11@0 ]  8 -> [ 5@0 ]  12 -> [ 1@0 ]  ], output requests = [ 1 -> [ 12@0 ]  5 -> [ 8@0 ]  11 -> [ 5@0 ]  ].
27 | network_0/router_level3_304/sw_allocator | Input grants = [ 5 -> 11  8 -> 5  12 -> 1  ], output grants = [ 1 -> 12  5 -> 8  11 -> 5  ].
27 | network_0/router_level3_304 | Assigning output 1.0 to VC 0 at input 12.0.
27 | network_0/router_level3_304 | Completed switch allocation for VC 0 at input 12 (front: 7).
27 | network_0/router_level3_304 |   Scheduling switch connection from input 12.0 to output 1.0.
27 | network_0/router_level3_368 | Beginning switch allocation for VC 0 at input 13 (front: 8).
27 | network_0/router_level3_368 |   Requesting output 1.0 (non-spec, pri: 0).
27 | network_0/router_level3_368/sw_allocator | Input requests = [ 8 -> [ 7@0 ]  13 -> [ 1@0 ]  ], output requests = [ 1 -> [ 13@0 ]  7 -> [ 8@0 ]  ].
27 | network_0/router_level3_368/sw_allocator | Input grants = [ 8 -> 7  13 -> 1  ], output grants = [ 1 -> 13  7 -> 8  ].
27 | network_0/router_level3_368 | Assigning output 1.0 to VC 0 at input 13.0.
27 | network_0/router_level3_368 | Completed switch allocation for VC 0 at input 13 (front: 8).
27 | network_0/router_level3_368 |   Scheduling switch connection from input 13.0 to output 1.0.
27 | network_0/router_level3_440 | Beginning switch allocation for VC 0 at input 11 (front: 9).
27 | network_0/router_level3_440 |   Requesting output 1.0 (non-spec, pri: 0).
27 | network_0/router_level3_440/sw_allocator | Input requests = [ 0 -> [ 15@0 ]  3 -> [ 10@0 ]  11 -> [ 1@0 ]  ], output requests = [ 1 -> [ 11@0 ]  10 -> [ 3@0 ]  15 -> [ 0@0 ]  ].
27 | network_0/router_level3_440/sw_allocator | Input grants = [ 0 -> 15  3 -> 10  11 -> 1  ], output grants = [ 1 -> 11  10 -> 3  15 -> 0  ].
27 | network_0/router_level3_440 | Assigning output 1.0 to VC 0 at input 11.0.
27 | network_0/router_level3_440 | Completed switch allocation for VC 0 at input 11 (front: 9).
27 | network_0/router_level3_440 |   Scheduling switch connection from input 11.0 to output 1.0.
27 | network_0/router_level3_456 | Beginning switch allocation for VC 0 at input 8 (front: 10).
27 | network_0/router_level3_456 |   Requesting output 1.0 (non-spec, pri: 0).
27 | network_0/router_level3_456/sw_allocator | Input requests = [ 8 -> [ 1@0 ]  9 -> [ 2@0 ]  ], output requests = [ 1 -> [ 8@0 ]  2 -> [ 9@0 ]  ].
27 | network_0/router_level3_456/sw_allocator | Input grants = [ 8 -> 1  9 -> 2  ], output grants = [ 1 -> 8  2 -> 9  ].
27 | network_0/router_level3_456 | Assigning output 1.0 to VC 0 at input 8.0.
27 | network_0/router_level3_456 | Completed switch allocation for VC 0 at input 8 (front: 10).
27 | network_0/router_level3_456 |   Scheduling switch connection from input 8.0 to output 1.0.
27 | network_0/router_level3_496 | Adding flit 2 to VC 0 at input 14 (state: idle, empty).
27 | network_0/router_level3_496 | Using precomputed lookahead routing information for VC 0 at input 14 (front: 2).
27 | network_0/router_level3_496/buf_14/vc_0 | Changing state from idle to vc_alloc.
27 | network_0/router_level3_496 | Beginning VC allocation for VC 0 at input 14 (front: 2).
27 | network_0/router_level3_496 |   Requesting VC 0 at output 0 (in_pri: 0, out_pri: 0).
27 | network_0/router_level3_496 |   Requesting VC 1 at output 0 (in_pri: 0, out_pri: 0).
27 | network_0/router_level3_496 |   Requesting VC 2 at output 0 (in_pri: 0, out_pri: 0).
27 | network_0/router_level3_496 |   Requesting VC 3 at output 0 (in_pri: 0, out_pri: 0).
27 | network_0/router_level3_496/vc_allocator | Input requests = [ 56 -> [ 0@0 1@0 2@0 3@0 ]  ], output requests = [ 0 -> [ 56@0 ]  1 -> [ 56@0 ]  2 -> [ 56@0 ]  3 -> [ 56@0 ]  ].
27 | network_0/router_level3_496/vc_allocator | Input grants = [ 56 -> 0  ], output grants = [ 0 -> 56  ].
27 | network_0/router_level3_496 | Assigning VC 0 at output 0 to VC 0 at input 14.
27 | network_0/router_level3_496 | Completed VC allocation for VC 0 at input 14 (front: 2).
27 | network_0/router_level3_496 |   Acquiring assigned VC 0 at output 0.
27 | network_0/router_level3_496/buf_14/vc_0 | Changing state from vc_alloc to active.
28 | network_0/router_level3_104 | Beginning crossbar traversal for flit 3 from input 14.0 to output 1.0.
28 | network_0/router_level3_104 | Completed crossbar traversal for flit 3 from input 14.0 to output 1.0.
28 | network_0/router_level3_104 | Buffering flit 3 at output 1.
28 | network_0/router_level3_160 | Beginning crossbar traversal for flit 4 from input 11.0 to output 1.0.
28 | network_0/router_level3_160 | Completed crossbar traversal for flit 4 from input 11.0 to output 1.0.
28 | network_0/router_level3_160 | Buffering flit 4 at output 1.
28 | network_0/router_level3_232 | Beginning crossbar traversal for flit 5 from input 11.0 to output 1.0.
28 | network_0/router_level3_232 | Completed crossbar traversal for flit 5 from input 11.0 to output 1.0.
28 | network_0/router_level3_232 | Buffering flit 5 at output 1.
28 | network_0/router_level3_272 | Beginning crossbar traversal for flit 1 from input 9.0 to output 0.0.
28 | network_0/router_level3_272 | Completed crossbar traversal for flit 1 from input 9.0 to output 0.0.
28 | network_0/router_level3_272 | Buffering flit 1 at output 0.
28 | network_0/router_level3_296 | Beginning crossbar traversal for flit 6 from input 10.0 to output 1.0.
28 | network_0/router_level3_296 | Completed crossbar traversal for flit 6 from input 10.0 to output 1.0.
28 | network_0/router_level3_296 | Buffering flit 6 at output 1.
28 | network_0/router_level3_304 | Beginning crossbar traversal for flit 7 from input 12.0 to output 1.0.
28 | network_0/router_level3_304 | Completed crossbar traversal for flit 7 from input 12.0 to output 1.0.
28 | network_0/router_level3_304 | Buffering flit 7 at output 1.
28 | network_0/router_level3_368 | Beginning crossbar traversal for flit 8 from input 13.0 to output 1.0.
28 | network_0/router_level3_368 | Completed crossbar traversal for flit 8 from input 13.0 to output 1.0.
28 | network_0/router_level3_368 | Buffering flit 8 at output 1.
28 | network_0/router_level3_440 | Beginning crossbar traversal for flit 9 from input 11.0 to output 1.0.
28 | network_0/router_level3_440 | Completed crossbar traversal for flit 9 from input 11.0 to output 1.0.
28 | network_0/router_level3_440 | Buffering flit 9 at output 1.
28 | network_0/router_level3_456 | Beginning crossbar traversal for flit 10 from input 8.0 to output 1.0.
28 | network_0/router_level3_456 | Completed crossbar traversal for flit 10 from input 8.0 to output 1.0.
28 | network_0/router_level3_456 | Buffering flit 10 at output 1.
28 | network_0/router_level3_496 | Beginning switch allocation for VC 0 at input 14 (front: 2).
28 | network_0/router_level3_496 |   Requesting output 0.0 (non-spec, pri: 0).
28 | network_0/router_level3_496/sw_allocator | Input requests = [ 14 -> [ 0@0 ]  ], output requests = [ 0 -> [ 14@0 ]  ].
28 | network_0/router_level3_496/sw_allocator | Input grants = [ 14 -> 0  ], output grants = [ 0 -> 14  ].
28 | network_0/router_level3_496 | Assigning output 0.0 to VC 0 at input 14.0.
28 | network_0/router_level3_496 | Completed switch allocation for VC 0 at input 14 (front: 2).
28 | network_0/router_level3_496 |   Scheduling switch connection from input 14.0 to output 0.0.
28 | network_0/router_level3_104 | Sending flit 3 to channel at output 1.
28 | network_0/router_level3_160 | Sending flit 4 to channel at output 1.
28 | network_0/router_level3_232 | Sending flit 5 to channel at output 1.
28 | network_0/router_level3_272 | Sending flit 1 to channel at output 0.
28 | network_0/router_level3_296 | Sending flit 6 to channel at output 1.
28 | network_0/router_level3_304 | Sending flit 7 to channel at output 1.
28 | network_0/router_level3_368 | Sending flit 8 to channel at output 1.
28 | network_0/router_level3_440 | Sending flit 9 to channel at output 1.
28 | network_0/router_level3_456 | Sending flit 10 to channel at output 1.
29 | network_0/network_0_fchan_egress833 | Beginning channel traversal for flit 3 with delay 1.
29 | network_0/network_0_fchan_egress1281 | Beginning channel traversal for flit 4 with delay 1.
29 | network_0/network_0_fchan_egress1857 | Beginning channel traversal for flit 5 with delay 1.
29 | network_0/network_0_fchan_egress2176 | Beginning channel traversal for flit 1 with delay 1.
29 | network_0/network_0_fchan_egress2369 | Beginning channel traversal for flit 6 with delay 1.
29 | network_0/network_0_fchan_egress2433 | Beginning channel traversal for flit 7 with delay 1.
29 | network_0/network_0_fchan_egress2945 | Beginning channel traversal for flit 8 with delay 1.
29 | network_0/network_0_fchan_egress3521 | Beginning channel traversal for flit 9 with delay 1.
29 | network_0/network_0_fchan_egress3649 | Beginning channel traversal for flit 10 with delay 1.
29 | network_0/router_level3_496 | Beginning crossbar traversal for flit 2 from input 14.0 to output 0.0.
29 | network_0/router_level3_496 | Completed crossbar traversal for flit 2 from input 14.0 to output 0.0.
29 | network_0/router_level3_496 | Buffering flit 2 at output 0.
29 | network_0/network_0_fchan_egress833 | Completed channel traversal for flit 3.
29 | network_0/network_0_fchan_egress1281 | Completed channel traversal for flit 4.
29 | network_0/network_0_fchan_egress1857 | Completed channel traversal for flit 5.
29 | network_0/network_0_fchan_egress2176 | Completed channel traversal for flit 1.
29 | network_0/network_0_fchan_egress2369 | Completed channel traversal for flit 6.
29 | network_0/network_0_fchan_egress2433 | Completed channel traversal for flit 7.
29 | network_0/network_0_fchan_egress2945 | Completed channel traversal for flit 8.
29 | network_0/network_0_fchan_egress3521 | Completed channel traversal for flit 9.
29 | network_0/network_0_fchan_egress3649 | Completed channel traversal for flit 10.
29 | network_0/router_level3_496 | Sending flit 2 to channel at output 0.
30 | node833 | Ejecting flit 3 (packet 3) from VC 0.
30 | node1281 | Ejecting flit 4 (packet 4) from VC 0.
30 | node1857 | Ejecting flit 5 (packet 5) from VC 0.
30 | node2176 | Ejecting flit 1 (packet 1) from VC 0.
30 | node2369 | Ejecting flit 6 (packet 6) from VC 0.
30 | node2433 | Ejecting flit 7 (packet 7) from VC 0.
30 | node2945 | Ejecting flit 8 (packet 8) from VC 0.
30 | node3521 | Ejecting flit 9 (packet 9) from VC 0.
30 | node3649 | Ejecting flit 10 (packet 10) from VC 0.
30 | network_0/network_0_fchan_egress3968 | Beginning channel traversal for flit 2 with delay 1.
30 | node833 | Injecting credit for VC 0 into subnet 0.
30 | node833 | Retiring flit 3 (packet 3, src = 77, dest = 833, hops = 7, flat = 30).
30 | node833 | Retiring packet 3 (plat = 30, nlat = 30, frag = 0, src = 77, dest = 833).
30 | node1281 | Injecting credit for VC 0 into subnet 0.
30 | node1281 | Retiring flit 4 (packet 4, src = 84, dest = 1281, hops = 7, flat = 30).
30 | node1281 | Retiring packet 4 (plat = 30, nlat = 30, frag = 0, src = 84, dest = 1281).
30 | node1857 | Injecting credit for VC 0 into subnet 0.
30 | node1857 | Retiring flit 5 (packet 5, src = 93, dest = 1857, hops = 7, flat = 30).
30 | node1857 | Retiring packet 5 (plat = 30, nlat = 30, frag = 0, src = 93, dest = 1857).
30 | node2176 | Injecting credit for VC 0 into subnet 0.
30 | node2176 | Retiring flit 1 (packet 1, src = 34, dest = 2176, hops = 7, flat = 30).
30 | node2176 | Retiring packet 1 (plat = 30, nlat = 30, frag = 0, src = 34, dest = 2176).
30 | node2369 | Injecting credit for VC 0 into subnet 0.
30 | node2369 | Retiring flit 6 (packet 6, src = 101, dest = 2369, hops = 7, flat = 30).
30 | node2369 | Retiring packet 6 (plat = 30, nlat = 30, frag = 0, src = 101, dest = 2369).
30 | node2433 | Injecting credit for VC 0 into subnet 0.
30 | node2433 | Retiring flit 7 (packet 7, src = 102, dest = 2433, hops = 7, flat = 30).
30 | node2433 | Retiring packet 7 (plat = 30, nlat = 30, frag = 0, src = 102, dest = 2433).
30 | node2945 | Injecting credit for VC 0 into subnet 0.
30 | node2945 | Retiring flit 8 (packet 8, src = 110, dest = 2945, hops = 7, flat = 30).
30 | node2945 | Retiring packet 8 (plat = 30, nlat = 30, frag = 0, src = 110, dest = 2945).
30 | node3521 | Injecting credit for VC 0 into subnet 0.
30 | node3521 | Retiring flit 9 (packet 9, src = 119, dest = 3521, hops = 7, flat = 30).
30 | node3521 | Retiring packet 9 (plat = 30, nlat = 30, frag = 0, src = 119, dest = 3521).
30 | node3649 | Injecting credit for VC 0 into subnet 0.
30 | node3649 | Retiring flit 10 (packet 10, src = 121, dest = 3649, hops = 7, flat = 30).
30 | node3649 | Retiring packet 10 (plat = 30, nlat = 30, frag = 0, src = 121, dest = 3649).
30 | network_0/network_0_fchan_egress3968 | Completed channel traversal for flit 2.
31 | node3968 | Ejecting flit 2 (packet 2) from VC 0.
31 | node3968 | Injecting credit for VC 0 into subnet 0.
31 | node3968 | Retiring flit 2 (packet 2, src = 62, dest = 3968, hops = 7, flat = 31).
31 | node3968 | Retiring packet 2 (plat = 31, nlat = 31, frag = 0, src = 62, dest = 3968).
Class 0:
Packet latency average = 29.0642
	minimum = 6
	maximum = 38
Network latency average = 29.0642
	minimum = 6
	maximum = 38
Slowest packet = 293041
Flit latency average = 29.0642
	minimum = 6
	maximum = 38
Slowest flit = 293041
Fragmentation average = 0
	minimum = 0
	maximum = 0
Injected packet rate average = 0.0998809
	minimum = 0.068 (at node 2841)
	maximum = 0.136 (at node 1815)
Accepted packet rate average = 0.0969675
	minimum = 0.063 (at node 1644)
	maximum = 0.132 (at node 2312)
Injected flit rate average = 0.0998809
	minimum = 0.068 (at node 2841)
	maximum = 0.136 (at node 1815)
Accepted flit rate average= 0.0969675
	minimum = 0.063 (at node 1644)
	maximum = 0.132 (at node 2312)
Injected packet length average = 1
Accepted packet length average = 1
Total in-flight flits = 11933 (0 measured)
latency change    = 1
throughput change = 1
Class 0:
Packet latency average = 29.0768
	minimum = 6
	maximum = 38
Network latency average = 29.0768
	minimum = 6
	maximum = 38
Slowest packet = 293041
Flit latency average = 29.0768
	minimum = 6
	maximum = 38
Slowest flit = 293041
Fragmentation average = 0
	minimum = 0
	maximum = 0
Injected packet rate average = 0.0999166
	minimum = 0.08 (at node 2730)
	maximum = 0.125 (at node 1045)
Accepted packet rate average = 0.0984617
	minimum = 0.0785 (at node 2181)
	maximum = 0.123 (at node 2372)
Injected flit rate average = 0.0999166
	minimum = 0.08 (at node 2730)
	maximum = 0.125 (at node 1045)
Accepted flit rate average= 0.0984617
	minimum = 0.0785 (at node 2181)
	maximum = 0.123 (at node 2372)
Injected packet length average = 1
Accepted packet length average = 1
Total in-flight flits = 11919 (0 measured)
latency change    = 0.00043377
throughput change = 0.0151748
Class 0:
Packet latency average = 29.0777
	minimum = 6
	maximum = 38
Network latency average = 29.0777
	minimum = 6
	maximum = 38
Slowest packet = 838481
Flit latency average = 29.0777
	minimum = 6
	maximum = 38
Slowest flit = 838481
Fragmentation average = 0
	minimum = 0
	maximum = 0
Injected packet rate average = 0.100041
	minimum = 0.065 (at node 1989)
	maximum = 0.132 (at node 863)
Accepted packet rate average = 0.100013
	minimum = 0.065 (at node 351)
	maximum = 0.133 (at node 204)
Injected flit rate average = 0.100041
	minimum = 0.065 (at node 1989)
	maximum = 0.132 (at node 863)
Accepted flit rate average= 0.100013
	minimum = 0.065 (at node 351)
	maximum = 0.133 (at node 204)
Injected packet length average = 1
Accepted packet length average = 1
Total in-flight flits = 12035 (0 measured)
latency change    = 2.94256e-05
throughput change = 0.0155107
Warmed up ...Time used is 3000 cycles
Class 0:
Packet latency average = 29.0627
	minimum = 6
	maximum = 38
Network latency average = 29.0627
	minimum = 6
	maximum = 38
Slowest packet = 1255606
Flit latency average = 29.0785
	minimum = 6
	maximum = 38
Slowest flit = 1255606
Fragmentation average = 0
	minimum = 0
	maximum = 0
Injected packet rate average = 0.0998091
	minimum = 0.07 (at node 1103)
	maximum = 0.137 (at node 2489)
Accepted packet rate average = 0.0998464
	minimum = 0.067 (at node 977)
	maximum = 0.136 (at node 653)
Injected flit rate average = 0.0998091
	minimum = 0.07 (at node 1103)
	maximum = 0.137 (at node 2489)
Accepted flit rate average= 0.0998464
	minimum = 0.067 (at node 977)
	maximum = 0.136 (at node 653)
Injected packet length average = 1
Accepted packet length average = 1
Total in-flight flits = 11882 (11882 measured)
latency change    = 0.000515988
throughput change = 0.0016676
Class 0:
Packet latency average = 29.0724
	minimum = 6
	maximum = 39
Network latency average = 29.0724
	minimum = 6
	maximum = 39
Slowest packet = 1675131
Flit latency average = 29.0802
	minimum = 6
	maximum = 39
Slowest flit = 1675131
Fragmentation average = 0
	minimum = 0
	maximum = 0
Injected packet rate average = 0.0999216
	minimum = 0.0795 (at node 382)
	maximum = 0.1255 (at node 3854)
Accepted packet rate average = 0.0999681
	minimum = 0.078 (at node 3973)
	maximum = 0.1255 (at node 956)
Injected flit rate average = 0.0999216
	minimum = 0.0795 (at node 382)
	maximum = 0.1255 (at node 3854)
Accepted flit rate average= 0.0999681
	minimum = 0.078 (at node 3973)
	maximum = 0.1255 (at node 956)
Injected packet length average = 1
Accepted packet length average = 1
Total in-flight flits = 11654 (11654 measured)
latency change    = 0.000334735
throughput change = 0.00121743
Class 0:
Packet latency average = 29.0752
	minimum = 6
	maximum = 39
Network latency average = 29.0752
	minimum = 6
	maximum = 39
Slowest packet = 1675131
Flit latency average = 29.0803
	minimum = 6
	maximum = 39
Slowest flit = 1675131
Fragmentation average = 0
	minimum = 0
	maximum = 0
Injected packet rate average = 0.100033
	minimum = 0.0833333 (at node 212)
	maximum = 0.117667 (at node 3300)
Accepted packet rate average = 0.10004
	minimum = 0.083 (at node 1283)
	maximum = 0.118667 (at node 984)
Injected flit rate average = 0.100033
	minimum = 0.0833333 (at node 212)
	maximum = 0.117667 (at node 3300)
Accepted flit rate average= 0.10004
	minimum = 0.083 (at node 1283)
	maximum = 0.118667 (at node 984)
Injected packet length average = 1
Accepted packet length average = 1
Total in-flight flits = 11945 (11945 measured)
latency change    = 9.50436e-05
throughput change = 0.000720332
Draining all recorded packets ...
Draining remaining packets ...
Time taken is 6072 cycles
====== Overall Traffic Statistics ======
====== Traffic class 0 ======
Packet latency average = 29.0802 (1 samples)
	minimum = 6 (1 samples)
	maximum = 39 (1 samples)
Network latency average = 29.0802 (1 samples)
	minimum = 6 (1 samples)
	maximum = 39 (1 samples)
Flit latency average = 29.0849 (1 samples)
	minimum = 6 (1 samples)
	maximum = 39 (1 samples)
Fragmentation average = 0 (1 samples)
	minimum = 0 (1 samples)
	maximum = 0 (1 samples)
Injected packet rate average = 0.100033 (1 samples)
	minimum = 0.0833333 (1 samples)
	maximum = 0.117667 (1 samples)
Accepted packet rate average = 0.10004 (1 samples)
	minimum = 0.083 (1 samples)
	maximum = 0.118667 (1 samples)
Injected flit rate average = 0.100033 (1 samples)
	minimum = 0.0833333 (1 samples)
	maximum = 0.117667 (1 samples)
Accepted flit rate average = 0.10004 (1 samples)
	minimum = 0.083 (1 samples)
	maximum = 0.118667 (1 samples)
Injected packet size average = 1 (1 samples)
Accepted packet size average = 1 (1 samples)
Hops average = 6.68754 (1 samples)
Total run time 335.422
