BEGIN Configuration File: examples/fattree_config_0.40_2_bitcomp
// $Id: dragonflyconfig 3555 2011-05-16 23:37:55Z dub $

// Copyright (c) 2007-2015, Trustees of The Leland Stanford Junior University
// All rights reserved.
//
// Redistribution and use in source and binary forms, with or without
// modification, are permitted provided that the following conditions are met:
//
// Redistributions of source code must retain the above copyright notice, this
// list of conditions and the following disclaimer.
// Redistributions in binary form must reproduce the above copyright notice,
// this list of conditions and the following disclaimer in the documentation
// and/or other materials provided with the distribution.
//
// THIS SOFTWARE IS PROVIDED BY THE COPYRIGHT HOLDERS AND CONTRIBUTORS "AS IS"
// AND ANY EXPRESS OR IMPLIED WARRANTIES, INCLUDING, BUT NOT LIMITED TO, THE
// IMPLIED WARRANTIES OF MERCHANTABILITY AND FITNESS FOR A PARTICULAR PURPOSE
// ARE DISCLAIMED. IN NO EVENT SHALL THE COPYRIGHT OWNER OR CONTRIBUTORS BE
// LIABLE FOR ANY DIRECT, INDIRECT, INCIDENTAL, SPECIAL, EXEMPLARY, OR
// CONSEQUENTIAL DAMAGES (INCLUDING, BUT NOT LIMITED TO, PROCUREMENT OF
// SUBSTITUTE GOODS OR SERVICES; LOSS OF USE, DATA, OR PROFITS; OR BUSINESS
// INTERRUPTION) HOWEVER CAUSED AND ON ANY THEORY OF LIABILITY, WHETHER IN
// CONTRACT, STRICT LIABILITY, OR TORT (INCLUDING NEGLIGENCE OR OTHERWISE)
// ARISING IN ANY WAY OUT OF THE USE OF THIS SOFTWARE, EVEN IF ADVISED OF THE
// POSSIBILITY OF SUCH DAMAGE.


hold_switch_for_packet=1;

vc_buf_size = 16;


wait_for_tail_credit = 0;

//
// Router architecture
//
vc_allocator = separable_input_first; 
sw_allocator = separable_input_first;
alloc_iters  = 1;

credit_delay   = 2;
routing_delay  = 0;
vc_alloc_delay = 1;
sw_alloc_delay = 1;
st_final_delay = 1;

input_speedup     = 1;
output_speedup    = 1;
internal_speedup  = 1.0;


warmup_periods = 3;
sim_count          = 1;

sample_period  = 1000;  

routing_function = nca;
num_vcs     = 4;

priority = none;
traffic = bitcomp;


injection_rate = 0.40;
packet_size = 1;
injection_rate_uses_flits=1;

topology = fattree;

k  = 8;
n  = 4;
t = 2;

watch_file = watchfile.txt;
watch_out=-;
stats_out = examples/fattree_config_0.40_2_bitcomp.m;

END Configuration File: examples/fattree_config_0.40_2_bitcomp
Fat Tree
 k = 8 levels = 4
 each switch - total radix =  16
 # of switches = 2048
 # of channels = 24576
 # of nodes ( size of network ) = 4096
 tapering factor = 2
0 | node11 | Enqueuing flit 1 (packet 1) at time 0.
0 | node12 | Enqueuing flit 2 (packet 2) at time 0.
0 | node13 | Enqueuing flit 3 (packet 3) at time 0.
0 | node14 | Enqueuing flit 4 (packet 4) at time 0.
0 | node15 | Enqueuing flit 5 (packet 5) at time 0.
0 | node18 | Enqueuing flit 6 (packet 6) at time 0.
0 | node19 | Enqueuing flit 7 (packet 7) at time 0.
0 | node20 | Enqueuing flit 8 (packet 8) at time 0.
0 | node30 | Enqueuing flit 9 (packet 9) at time 0.
0 | node31 | Enqueuing flit 10 (packet 10) at time 0.
0 | traffic_manager | Finding output VC for flit 1:
0 | traffic_manager |   Selected output VC 0.
0 | node11 | Generating lookahead routing info for flit 1.
0 | node11 | Injecting flit 1 into subnet 0 at time 0 with priority 0.
0 | traffic_manager | Finding output VC for flit 2:
0 | traffic_manager |   Selected output VC 0.
0 | node12 | Generating lookahead routing info for flit 2.
0 | node12 | Injecting flit 2 into subnet 0 at time 0 with priority 0.
0 | traffic_manager | Finding output VC for flit 3:
0 | traffic_manager |   Selected output VC 0.
0 | node13 | Generating lookahead routing info for flit 3.
0 | node13 | Injecting flit 3 into subnet 0 at time 0 with priority 0.
0 | traffic_manager | Finding output VC for flit 4:
0 | traffic_manager |   Selected output VC 0.
0 | node14 | Generating lookahead routing info for flit 4.
0 | node14 | Injecting flit 4 into subnet 0 at time 0 with priority 0.
0 | traffic_manager | Finding output VC for flit 5:
0 | traffic_manager |   Selected output VC 0.
0 | node15 | Generating lookahead routing info for flit 5.
0 | node15 | Injecting flit 5 into subnet 0 at time 0 with priority 0.
0 | traffic_manager | Finding output VC for flit 6:
0 | traffic_manager |   Selected output VC 0.
0 | node18 | Generating lookahead routing info for flit 6.
0 | node18 | Injecting flit 6 into subnet 0 at time 0 with priority 0.
0 | traffic_manager | Finding output VC for flit 7:
0 | traffic_manager |   Selected output VC 0.
0 | node19 | Generating lookahead routing info for flit 7.
0 | node19 | Injecting flit 7 into subnet 0 at time 0 with priority 0.
0 | traffic_manager | Finding output VC for flit 8:
0 | traffic_manager |   Selected output VC 0.
0 | node20 | Generating lookahead routing info for flit 8.
0 | node20 | Injecting flit 8 into subnet 0 at time 0 with priority 0.
0 | traffic_manager | Finding output VC for flit 9:
0 | traffic_manager |   Selected output VC 0.
0 | node30 | Generating lookahead routing info for flit 9.
0 | node30 | Injecting flit 9 into subnet 0 at time 0 with priority 0.
0 | traffic_manager | Finding output VC for flit 10:
0 | traffic_manager |   Selected output VC 0.
0 | node31 | Generating lookahead routing info for flit 10.
0 | node31 | Injecting flit 10 into subnet 0 at time 0 with priority 0.
1 | network_0/network_0_fchan_ingress11 | Beginning channel traversal for flit 1 with delay 1.
1 | network_0/network_0_fchan_ingress12 | Beginning channel traversal for flit 2 with delay 1.
1 | network_0/network_0_fchan_ingress13 | Beginning channel traversal for flit 3 with delay 1.
1 | network_0/network_0_fchan_ingress14 | Beginning channel traversal for flit 4 with delay 1.
1 | network_0/network_0_fchan_ingress15 | Beginning channel traversal for flit 5 with delay 1.
1 | network_0/network_0_fchan_ingress18 | Beginning channel traversal for flit 6 with delay 1.
1 | network_0/network_0_fchan_ingress19 | Beginning channel traversal for flit 7 with delay 1.
1 | network_0/network_0_fchan_ingress20 | Beginning channel traversal for flit 8 with delay 1.
1 | network_0/network_0_fchan_ingress30 | Beginning channel traversal for flit 9 with delay 1.
1 | network_0/network_0_fchan_ingress31 | Beginning channel traversal for flit 10 with delay 1.
1 | network_0/network_0_fchan_ingress11 | Completed channel traversal for flit 1.
1 | network_0/network_0_fchan_ingress12 | Completed channel traversal for flit 2.
1 | network_0/network_0_fchan_ingress13 | Completed channel traversal for flit 3.
1 | network_0/network_0_fchan_ingress14 | Completed channel traversal for flit 4.
1 | network_0/network_0_fchan_ingress15 | Completed channel traversal for flit 5.
1 | network_0/network_0_fchan_ingress18 | Completed channel traversal for flit 6.
1 | network_0/network_0_fchan_ingress19 | Completed channel traversal for flit 7.
1 | network_0/network_0_fchan_ingress20 | Completed channel traversal for flit 8.
1 | network_0/network_0_fchan_ingress30 | Completed channel traversal for flit 9.
1 | network_0/network_0_fchan_ingress31 | Completed channel traversal for flit 10.
2 | network_0/router_level3_1 | Received flit 1 from channel at input 3.
2 | network_0/router_level3_1 | Received flit 2 from channel at input 4.
2 | network_0/router_level3_1 | Received flit 3 from channel at input 5.
2 | network_0/router_level3_1 | Received flit 4 from channel at input 6.
2 | network_0/router_level3_1 | Received flit 5 from channel at input 7.
2 | network_0/router_level3_2 | Received flit 6 from channel at input 2.
2 | network_0/router_level3_2 | Received flit 7 from channel at input 3.
2 | network_0/router_level3_2 | Received flit 8 from channel at input 4.
2 | network_0/router_level3_3 | Received flit 9 from channel at input 6.
2 | network_0/router_level3_3 | Received flit 10 from channel at input 7.
2 | network_0/router_level3_1 | Adding flit 1 to VC 0 at input 3 (state: idle, empty).
2 | network_0/router_level3_1 | Using precomputed lookahead routing information for VC 0 at input 3 (front: 1).
2 | network_0/router_level3_1/buf_3/vc_0 | Changing state from idle to vc_alloc.
2 | network_0/router_level3_1 | Adding flit 2 to VC 0 at input 4 (state: idle, empty).
2 | network_0/router_level3_1 | Using precomputed lookahead routing information for VC 0 at input 4 (front: 2).
2 | network_0/router_level3_1/buf_4/vc_0 | Changing state from idle to vc_alloc.
2 | network_0/router_level3_1 | Adding flit 3 to VC 0 at input 5 (state: idle, empty).
2 | network_0/router_level3_1 | Using precomputed lookahead routing information for VC 0 at input 5 (front: 3).
2 | network_0/router_level3_1/buf_5/vc_0 | Changing state from idle to vc_alloc.
2 | network_0/router_level3_1 | Adding flit 4 to VC 0 at input 6 (state: idle, empty).
2 | network_0/router_level3_1 | Using precomputed lookahead routing information for VC 0 at input 6 (front: 4).
2 | network_0/router_level3_1/buf_6/vc_0 | Changing state from idle to vc_alloc.
2 | network_0/router_level3_1 | Adding flit 5 to VC 0 at input 7 (state: idle, empty).
2 | network_0/router_level3_1 | Using precomputed lookahead routing information for VC 0 at input 7 (front: 5).
2 | network_0/router_level3_1/buf_7/vc_0 | Changing state from idle to vc_alloc.
2 | network_0/router_level3_1 | Beginning VC allocation for VC 0 at input 3 (front: 1).
2 | network_0/router_level3_1 |   Requesting VC 0 at output 9 (in_pri: 0, out_pri: 0).
2 | network_0/router_level3_1 |   Requesting VC 1 at output 9 (in_pri: 0, out_pri: 0).
2 | network_0/router_level3_1 |   Requesting VC 2 at output 9 (in_pri: 0, out_pri: 0).
2 | network_0/router_level3_1 |   Requesting VC 3 at output 9 (in_pri: 0, out_pri: 0).
2 | network_0/router_level3_1 | Beginning VC allocation for VC 0 at input 4 (front: 2).
2 | network_0/router_level3_1 |   Requesting VC 0 at output 13 (in_pri: 0, out_pri: 0).
2 | network_0/router_level3_1 |   Requesting VC 1 at output 13 (in_pri: 0, out_pri: 0).
2 | network_0/router_level3_1 |   Requesting VC 2 at output 13 (in_pri: 0, out_pri: 0).
2 | network_0/router_level3_1 |   Requesting VC 3 at output 13 (in_pri: 0, out_pri: 0).
2 | network_0/router_level3_1 | Beginning VC allocation for VC 0 at input 5 (front: 3).
2 | network_0/router_level3_1 |   Requesting VC 0 at output 11 (in_pri: 0, out_pri: 0).
2 | network_0/router_level3_1 |   Requesting VC 1 at output 11 (in_pri: 0, out_pri: 0).
2 | network_0/router_level3_1 |   Requesting VC 2 at output 11 (in_pri: 0, out_pri: 0).
2 | network_0/router_level3_1 |   Requesting VC 3 at output 11 (in_pri: 0, out_pri: 0).
2 | network_0/router_level3_1 | Beginning VC allocation for VC 0 at input 6 (front: 4).
2 | network_0/router_level3_1 |   Requesting VC 0 at output 12 (in_pri: 0, out_pri: 0).
2 | network_0/router_level3_1 |   Requesting VC 1 at output 12 (in_pri: 0, out_pri: 0).
2 | network_0/router_level3_1 |   Requesting VC 2 at output 12 (in_pri: 0, out_pri: 0).
2 | network_0/router_level3_1 |   Requesting VC 3 at output 12 (in_pri: 0, out_pri: 0).
2 | network_0/router_level3_1 | Beginning VC allocation for VC 0 at input 7 (front: 5).
2 | network_0/router_level3_1 |   Requesting VC 0 at output 11 (in_pri: 0, out_pri: 0).
2 | network_0/router_level3_1 |   Requesting VC 1 at output 11 (in_pri: 0, out_pri: 0).
2 | network_0/router_level3_1 |   Requesting VC 2 at output 11 (in_pri: 0, out_pri: 0).
2 | network_0/router_level3_1 |   Requesting VC 3 at output 11 (in_pri: 0, out_pri: 0).
2 | network_0/router_level3_1/vc_allocator | Input requests = [ 4 -> [ 48@0 49@0 50@0 51@0 ]  12 -> [ 36@0 37@0 38@0 39@0 ]  16 -> [ 52@0 53@0 54@0 55@0 ]  20 -> [ 44@0 45@0 46@0 47@0 ]  24 -> [ 48@0 49@0 50@0 51@0 ]  28 -> [ 44@0 45@0 46@0 47@0 ]  ], output requests = [ 36 -> [ 12@0 ]  37 -> [ 12@0 ]  38 -> [ 12@0 ]  39 -> [ 12@0 ]  44 -> [ 20@0 28@0 ]  45 -> [ 20@0 28@0 ]  46 -> [ 20@0 28@0 ]  47 -> [ 20@0 28@0 ]  48 -> [ 4@0 24@0 ]  49 -> [ 4@0 24@0 ]  50 -> [ 4@0 24@0 ]  51 -> [ 4@0 24@0 ]  52 -> [ 16@0 ]  53 -> [ 16@0 ]  54 -> [ 16@0 ]  55 -> [ 16@0 ]  ].
2 | network_0/router_level3_1/vc_allocator | Input grants = [ 4 -> 48  12 -> 36  16 -> 52  20 -> 44  ], output grants = [ 36 -> 12  44 -> 20  48 -> 4  52 -> 16  ].
2 | network_0/router_level3_1 | Assigning VC 0 at output 9 to VC 0 at input 3.
2 | network_0/router_level3_1 | Assigning VC 0 at output 13 to VC 0 at input 4.
2 | network_0/router_level3_1 | Assigning VC 0 at output 11 to VC 0 at input 5.
2 | network_0/router_level3_1 | VC allocation failed for VC 0 at input 6.
2 | network_0/router_level3_1 | VC allocation failed for VC 0 at input 7.
2 | network_0/router_level3_1 | Completed VC allocation for VC 0 at input 3 (front: 1).
2 | network_0/router_level3_1 |   Acquiring assigned VC 0 at output 9.
2 | network_0/router_level3_1/buf_3/vc_0 | Changing state from vc_alloc to active.
2 | network_0/router_level3_1 | Completed VC allocation for VC 0 at input 4 (front: 2).
2 | network_0/router_level3_1 |   Acquiring assigned VC 0 at output 13.
2 | network_0/router_level3_1/buf_4/vc_0 | Changing state from vc_alloc to active.
2 | network_0/router_level3_1 | Completed VC allocation for VC 0 at input 5 (front: 3).
2 | network_0/router_level3_1 |   Acquiring assigned VC 0 at output 11.
2 | network_0/router_level3_1/buf_5/vc_0 | Changing state from vc_alloc to active.
2 | network_0/router_level3_1 | Completed VC allocation for VC 0 at input 6 (front: 4).
2 | network_0/router_level3_1 |   No output VC allocated.
2 | network_0/router_level3_1 | Completed VC allocation for VC 0 at input 7 (front: 5).
2 | network_0/router_level3_1 |   No output VC allocated.
2 | network_0/router_level3_2 | Adding flit 6 to VC 0 at input 2 (state: idle, empty).
2 | network_0/router_level3_2 | Using precomputed lookahead routing information for VC 0 at input 2 (front: 6).
2 | network_0/router_level3_2/buf_2/vc_0 | Changing state from idle to vc_alloc.
2 | network_0/router_level3_2 | Adding flit 7 to VC 0 at input 3 (state: idle, empty).
2 | network_0/router_level3_2 | Using precomputed lookahead routing information for VC 0 at input 3 (front: 7).
2 | network_0/router_level3_2/buf_3/vc_0 | Changing state from idle to vc_alloc.
2 | network_0/router_level3_2 | Adding flit 8 to VC 0 at input 4 (state: idle, empty).
2 | network_0/router_level3_2 | Using precomputed lookahead routing information for VC 0 at input 4 (front: 8).
2 | network_0/router_level3_2/buf_4/vc_0 | Changing state from idle to vc_alloc.
2 | network_0/router_level3_2 | Beginning VC allocation for VC 0 at input 2 (front: 6).
2 | network_0/router_level3_2 |   Requesting VC 0 at output 8 (in_pri: 0, out_pri: 0).
2 | network_0/router_level3_2 |   Requesting VC 1 at output 8 (in_pri: 0, out_pri: 0).
2 | network_0/router_level3_2 |   Requesting VC 2 at output 8 (in_pri: 0, out_pri: 0).
2 | network_0/router_level3_2 |   Requesting VC 3 at output 8 (in_pri: 0, out_pri: 0).
2 | network_0/router_level3_2 | Beginning VC allocation for VC 0 at input 3 (front: 7).
2 | network_0/router_level3_2 |   Requesting VC 0 at output 9 (in_pri: 0, out_pri: 0).
2 | network_0/router_level3_2 |   Requesting VC 1 at output 9 (in_pri: 0, out_pri: 0).
2 | network_0/router_level3_2 |   Requesting VC 2 at output 9 (in_pri: 0, out_pri: 0).
2 | network_0/router_level3_2 |   Requesting VC 3 at output 9 (in_pri: 0, out_pri: 0).
2 | network_0/router_level3_2 | Beginning VC allocation for VC 0 at input 4 (front: 8).
2 | network_0/router_level3_2 |   Requesting VC 0 at output 12 (in_pri: 0, out_pri: 0).
2 | network_0/router_level3_2 |   Requesting VC 1 at output 12 (in_pri: 0, out_pri: 0).
2 | network_0/router_level3_2 |   Requesting VC 2 at output 12 (in_pri: 0, out_pri: 0).
2 | network_0/router_level3_2 |   Requesting VC 3 at output 12 (in_pri: 0, out_pri: 0).
2 | network_0/router_level3_2/vc_allocator | Input requests = [ 8 -> [ 32@0 33@0 34@0 35@0 ]  12 -> [ 36@0 37@0 38@0 39@0 ]  16 -> [ 48@0 49@0 50@0 51@0 ]  ], output requests = [ 32 -> [ 8@0 ]  33 -> [ 8@0 ]  34 -> [ 8@0 ]  35 -> [ 8@0 ]  36 -> [ 12@0 ]  37 -> [ 12@0 ]  38 -> [ 12@0 ]  39 -> [ 12@0 ]  48 -> [ 16@0 ]  49 -> [ 16@0 ]  50 -> [ 16@0 ]  51 -> [ 16@0 ]  ].
2 | network_0/router_level3_2/vc_allocator | Input grants = [ 8 -> 32  12 -> 36  16 -> 48  ], output grants = [ 32 -> 8  36 -> 12  48 -> 16  ].
2 | network_0/router_level3_2 | Assigning VC 0 at output 8 to VC 0 at input 2.
2 | network_0/router_level3_2 | Assigning VC 0 at output 9 to VC 0 at input 3.
2 | network_0/router_level3_2 | Assigning VC 0 at output 12 to VC 0 at input 4.
2 | network_0/router_level3_2 | Completed VC allocation for VC 0 at input 2 (front: 6).
2 | network_0/router_level3_2 |   Acquiring assigned VC 0 at output 8.
2 | network_0/router_level3_2/buf_2/vc_0 | Changing state from vc_alloc to active.
2 | network_0/router_level3_2 | Completed VC allocation for VC 0 at input 3 (front: 7).
2 | network_0/router_level3_2 |   Acquiring assigned VC 0 at output 9.
2 | network_0/router_level3_2/buf_3/vc_0 | Changing state from vc_alloc to active.
2 | network_0/router_level3_2 | Completed VC allocation for VC 0 at input 4 (front: 8).
2 | network_0/router_level3_2 |   Acquiring assigned VC 0 at output 12.
2 | network_0/router_level3_2/buf_4/vc_0 | Changing state from vc_alloc to active.
2 | network_0/router_level3_3 | Adding flit 9 to VC 0 at input 6 (state: idle, empty).
2 | network_0/router_level3_3 | Using precomputed lookahead routing information for VC 0 at input 6 (front: 9).
2 | network_0/router_level3_3/buf_6/vc_0 | Changing state from idle to vc_alloc.
2 | network_0/router_level3_3 | Adding flit 10 to VC 0 at input 7 (state: idle, empty).
2 | network_0/router_level3_3 | Using precomputed lookahead routing information for VC 0 at input 7 (front: 10).
2 | network_0/router_level3_3/buf_7/vc_0 | Changing state from idle to vc_alloc.
2 | network_0/router_level3_3 | Beginning VC allocation for VC 0 at input 6 (front: 9).
2 | network_0/router_level3_3 |   Requesting VC 0 at output 9 (in_pri: 0, out_pri: 0).
2 | network_0/router_level3_3 |   Requesting VC 1 at output 9 (in_pri: 0, out_pri: 0).
2 | network_0/router_level3_3 |   Requesting VC 2 at output 9 (in_pri: 0, out_pri: 0).
2 | network_0/router_level3_3 |   Requesting VC 3 at output 9 (in_pri: 0, out_pri: 0).
2 | network_0/router_level3_3 | Beginning VC allocation for VC 0 at input 7 (front: 10).
2 | network_0/router_level3_3 |   Requesting VC 0 at output 12 (in_pri: 0, out_pri: 0).
2 | network_0/router_level3_3 |   Requesting VC 1 at output 12 (in_pri: 0, out_pri: 0).
2 | network_0/router_level3_3 |   Requesting VC 2 at output 12 (in_pri: 0, out_pri: 0).
2 | network_0/router_level3_3 |   Requesting VC 3 at output 12 (in_pri: 0, out_pri: 0).
2 | network_0/router_level3_3/vc_allocator | Input requests = [ 24 -> [ 36@0 37@0 38@0 39@0 ]  28 -> [ 48@0 49@0 50@0 51@0 ]  ], output requests = [ 36 -> [ 24@0 ]  37 -> [ 24@0 ]  38 -> [ 24@0 ]  39 -> [ 24@0 ]  48 -> [ 28@0 ]  49 -> [ 28@0 ]  50 -> [ 28@0 ]  51 -> [ 28@0 ]  ].
2 | network_0/router_level3_3/vc_allocator | Input grants = [ 24 -> 36  28 -> 48  ], output grants = [ 36 -> 24  48 -> 28  ].
2 | network_0/router_level3_3 | Assigning VC 0 at output 9 to VC 0 at input 6.
2 | network_0/router_level3_3 | Assigning VC 0 at output 12 to VC 0 at input 7.
2 | network_0/router_level3_3 | Completed VC allocation for VC 0 at input 6 (front: 9).
2 | network_0/router_level3_3 |   Acquiring assigned VC 0 at output 9.
2 | network_0/router_level3_3/buf_6/vc_0 | Changing state from vc_alloc to active.
2 | network_0/router_level3_3 | Completed VC allocation for VC 0 at input 7 (front: 10).
2 | network_0/router_level3_3 |   Acquiring assigned VC 0 at output 12.
2 | network_0/router_level3_3/buf_7/vc_0 | Changing state from vc_alloc to active.
3 | network_0/router_level3_1 | Beginning VC allocation for VC 0 at input 6 (front: 4).
3 | network_0/router_level3_1 |   VC 0 at output 12 is in use by VC 0 at input 1 (front flit: 0).
3 | network_0/router_level3_1 |   Requesting VC 1 at output 12 (in_pri: 0, out_pri: 0).
3 | network_0/router_level3_1 |   Requesting VC 2 at output 12 (in_pri: 0, out_pri: 0).
3 | network_0/router_level3_1 |   Requesting VC 3 at output 12 (in_pri: 0, out_pri: 0).
3 | network_0/router_level3_1 | Beginning VC allocation for VC 0 at input 7 (front: 5).
3 | network_0/router_level3_1 |   VC 0 at output 11 is in use by VC 0 at input 5 (front flit: 3).
3 | network_0/router_level3_1 |   Requesting VC 1 at output 11 (in_pri: 0, out_pri: 0).
3 | network_0/router_level3_1 |   Requesting VC 2 at output 11 (in_pri: 0, out_pri: 0).
3 | network_0/router_level3_1 |   Requesting VC 3 at output 11 (in_pri: 0, out_pri: 0).
3 | network_0/router_level3_1/vc_allocator | Input requests = [ 5 -> [ 32@0 33@0 34@0 35@0 ]  17 -> [ 60@0 61@0 62@0 63@0 ]  21 -> [ 40@0 41@0 42@0 43@0 ]  24 -> [ 49@0 50@0 51@0 ]  25 -> [ 45@0 46@0 47@0 ]  28 -> [ 45@0 46@0 47@0 ]  ], output requests = [ 32 -> [ 5@0 ]  33 -> [ 5@0 ]  34 -> [ 5@0 ]  35 -> [ 5@0 ]  40 -> [ 21@0 ]  41 -> [ 21@0 ]  42 -> [ 21@0 ]  43 -> [ 21@0 ]  45 -> [ 25@0 28@0 ]  46 -> [ 25@0 28@0 ]  47 -> [ 25@0 28@0 ]  49 -> [ 24@0 ]  50 -> [ 24@0 ]  51 -> [ 24@0 ]  60 -> [ 17@0 ]  61 -> [ 17@0 ]  62 -> [ 17@0 ]  63 -> [ 17@0 ]  ].
3 | network_0/router_level3_1/vc_allocator | Input grants = [ 5 -> 32  17 -> 60  21 -> 40  24 -> 49  25 -> 45  ], output grants = [ 32 -> 5  40 -> 21  45 -> 25  49 -> 24  60 -> 17  ].
3 | network_0/router_level3_1 | Assigning VC 1 at output 12 to VC 0 at input 6.
3 | network_0/router_level3_1 | VC allocation failed for VC 0 at input 7.
3 | network_0/router_level3_1 | Beginning switch allocation for VC 0 at input 3 (front: 1).
3 | network_0/router_level3_1 |   Requesting output 9.0 (non-spec, pri: 0).
3 | network_0/router_level3_1 | Beginning switch allocation for VC 0 at input 4 (front: 2).
3 | network_0/router_level3_1 |   Requesting output 13.0 (non-spec, pri: 0).
3 | network_0/router_level3_1 | Beginning switch allocation for VC 0 at input 5 (front: 3).
3 | network_0/router_level3_1 |   Requesting output 11.0 (non-spec, pri: 0).
3 | network_0/router_level3_1/sw_allocator | Input requests = [ 1 -> [ 12@0 ]  3 -> [ 9@0 ]  4 -> [ 13@0 ]  5 -> [ 11@0 ]  ], output requests = [ 9 -> [ 3@0 ]  11 -> [ 5@0 ]  12 -> [ 1@0 ]  13 -> [ 4@0 ]  ].
3 | network_0/router_level3_1/sw_allocator | Input grants = [ 1 -> 12  3 -> 9  4 -> 13  5 -> 11  ], output grants = [ 9 -> 3  11 -> 5  12 -> 1  13 -> 4  ].
3 | network_0/router_level3_1 | Assigning output 9.0 to VC 0 at input 3.0.
3 | network_0/router_level3_1 | Assigning output 13.0 to VC 0 at input 4.0.
3 | network_0/router_level3_1 | Assigning output 11.0 to VC 0 at input 5.0.
3 | network_0/router_level3_1 | Completed VC allocation for VC 0 at input 6 (front: 4).
3 | network_0/router_level3_1 |   Acquiring assigned VC 1 at output 12.
3 | network_0/router_level3_1/buf_6/vc_0 | Changing state from vc_alloc to active.
3 | network_0/router_level3_1 | Completed VC allocation for VC 0 at input 7 (front: 5).
3 | network_0/router_level3_1 |   No output VC allocated.
3 | network_0/router_level3_1 | Completed switch allocation for VC 0 at input 3 (front: 1).
3 | network_0/router_level3_1 |   Scheduling switch connection from input 3.0 to output 9.0.
3 | network_0/router_level3_1 | Updating lookahead routing information for flit 1.
3 | network_0/router_level3_1 | Completed switch allocation for VC 0 at input 4 (front: 2).
3 | network_0/router_level3_1 |   Scheduling switch connection from input 4.0 to output 13.0.
3 | network_0/router_level3_1 | Updating lookahead routing information for flit 2.
3 | network_0/router_level3_1 | Completed switch allocation for VC 0 at input 5 (front: 3).
3 | network_0/router_level3_1 |   Scheduling switch connection from input 5.0 to output 11.0.
3 | network_0/router_level3_1 | Updating lookahead routing information for flit 3.
3 | network_0/router_level3_2 | Beginning switch allocation for VC 0 at input 2 (front: 6).
3 | network_0/router_level3_2 |   Requesting output 8.0 (non-spec, pri: 0).
3 | network_0/router_level3_2 | Beginning switch allocation for VC 0 at input 3 (front: 7).
3 | network_0/router_level3_2 |   Requesting output 9.0 (non-spec, pri: 0).
3 | network_0/router_level3_2 | Beginning switch allocation for VC 0 at input 4 (front: 8).
3 | network_0/router_level3_2 |   Requesting output 12.0 (non-spec, pri: 0).
3 | network_0/router_level3_2/sw_allocator | Input requests = [ 2 -> [ 8@0 ]  3 -> [ 9@0 ]  4 -> [ 12@0 ]  ], output requests = [ 8 -> [ 2@0 ]  9 -> [ 3@0 ]  12 -> [ 4@0 ]  ].
3 | network_0/router_level3_2/sw_allocator | Input grants = [ 2 -> 8  3 -> 9  4 -> 12  ], output grants = [ 8 -> 2  9 -> 3  12 -> 4  ].
3 | network_0/router_level3_2 | Assigning output 8.0 to VC 0 at input 2.0.
3 | network_0/router_level3_2 | Assigning output 9.0 to VC 0 at input 3.0.
3 | network_0/router_level3_2 | Assigning output 12.0 to VC 0 at input 4.0.
3 | network_0/router_level3_2 | Completed switch allocation for VC 0 at input 2 (front: 6).
3 | network_0/router_level3_2 |   Scheduling switch connection from input 2.0 to output 8.0.
3 | network_0/router_level3_2 | Updating lookahead routing information for flit 6.
3 | network_0/router_level3_2 | Completed switch allocation for VC 0 at input 3 (front: 7).
3 | network_0/router_level3_2 |   Scheduling switch connection from input 3.0 to output 9.0.
3 | network_0/router_level3_2 | Updating lookahead routing information for flit 7.
3 | network_0/router_level3_2 | Completed switch allocation for VC 0 at input 4 (front: 8).
3 | network_0/router_level3_2 |   Scheduling switch connection from input 4.0 to output 12.0.
3 | network_0/router_level3_2 | Updating lookahead routing information for flit 8.
3 | network_0/router_level3_3 | Beginning switch allocation for VC 0 at input 6 (front: 9).
3 | network_0/router_level3_3 |   Requesting output 9.0 (non-spec, pri: 0).
3 | network_0/router_level3_3 | Beginning switch allocation for VC 0 at input 7 (front: 10).
3 | network_0/router_level3_3 |   Requesting output 12.0 (non-spec, pri: 0).
3 | network_0/router_level3_3/sw_allocator | Input requests = [ 6 -> [ 9@0 ]  7 -> [ 12@0 ]  ], output requests = [ 9 -> [ 6@0 ]  12 -> [ 7@0 ]  ].
3 | network_0/router_level3_3/sw_allocator | Input grants = [ 6 -> 9  7 -> 12  ], output grants = [ 9 -> 6  12 -> 7  ].
3 | network_0/router_level3_3 | Assigning output 9.0 to VC 0 at input 6.0.
3 | network_0/router_level3_3 | Assigning output 12.0 to VC 0 at input 7.0.
3 | network_0/router_level3_3 | Completed switch allocation for VC 0 at input 6 (front: 9).
3 | network_0/router_level3_3 |   Scheduling switch connection from input 6.0 to output 9.0.
3 | network_0/router_level3_3 | Updating lookahead routing information for flit 9.
3 | network_0/router_level3_3 | Completed switch allocation for VC 0 at input 7 (front: 10).
3 | network_0/router_level3_3 |   Scheduling switch connection from input 7.0 to output 12.0.
3 | network_0/router_level3_3 | Updating lookahead routing information for flit 10.
4 | network_0/router_level3_1 | Beginning VC allocation for VC 0 at input 7 (front: 5).
4 | network_0/router_level3_1 |   Requesting VC 0 at output 11 (in_pri: 0, out_pri: 0).
4 | network_0/router_level3_1 |   VC 1 at output 11 is in use by VC 1 at input 6 (front flit: 1589).
4 | network_0/router_level3_1 |   Requesting VC 2 at output 11 (in_pri: 0, out_pri: 0).
4 | network_0/router_level3_1 |   Requesting VC 3 at output 11 (in_pri: 0, out_pri: 0).
4 | network_0/router_level3_1/vc_allocator | Input requests = [ 0 -> [ 33@0 34@0 35@0 ]  6 -> [ 56@0 57@0 58@0 59@0 ]  22 -> [ 61@0 62@0 63@0 ]  28 -> [ 44@0 46@0 47@0 ]  ], output requests = [ 33 -> [ 0@0 ]  34 -> [ 0@0 ]  35 -> [ 0@0 ]  44 -> [ 28@0 ]  46 -> [ 28@0 ]  47 -> [ 28@0 ]  56 -> [ 6@0 ]  57 -> [ 6@0 ]  58 -> [ 6@0 ]  59 -> [ 6@0 ]  61 -> [ 22@0 ]  62 -> [ 22@0 ]  63 -> [ 22@0 ]  ].
4 | network_0/router_level3_1/vc_allocator | Input grants = [ 0 -> 33  6 -> 56  22 -> 61  28 -> 44  ], output grants = [ 33 -> 0  44 -> 28  56 -> 6  61 -> 22  ].
4 | network_0/router_level3_1 | Assigning VC 0 at output 11 to VC 0 at input 7.
4 | network_0/router_level3_1 | Beginning switch allocation for VC 0 at input 6 (front: 4).
4 | network_0/router_level3_1 |   Requesting output 12.0 (non-spec, pri: 0).
4 | network_0/router_level3_1/sw_allocator | Input requests = [ 1 -> [ 8@0 ]  4 -> [ 15@0 ]  5 -> [ 10@0 ]  6 -> [ 11@0 12@0 ]  ], output requests = [ 8 -> [ 1@0 ]  10 -> [ 5@0 ]  11 -> [ 6@0 ]  12 -> [ 6@0 ]  15 -> [ 4@0 ]  ].
4 | network_0/router_level3_1/sw_allocator | Input grants = [ 1 -> 8  4 -> 15  5 -> 10  6 -> 11  ], output grants = [ 8 -> 1  10 -> 5  11 -> 6  15 -> 4  ].
4 | network_0/router_level3_1 | Switch allocation failed for VC 0 at input 6: Granted to VC 1.
4 | network_0/router_level3_1 | Beginning crossbar traversal for flit 1 from input 3.0 to output 9.0.
4 | network_0/router_level3_1 | Beginning crossbar traversal for flit 2 from input 4.0 to output 13.0.
4 | network_0/router_level3_1 | Beginning crossbar traversal for flit 3 from input 5.0 to output 11.0.
4 | network_0/router_level3_1 | Completed VC allocation for VC 0 at input 7 (front: 5).
4 | network_0/router_level3_1 |   Acquiring assigned VC 0 at output 11.
4 | network_0/router_level3_1/buf_7/vc_0 | Changing state from vc_alloc to active.
4 | network_0/router_level3_1 | Completed switch allocation for VC 0 at input 6 (front: 4).
4 | network_0/router_level3_1 |   No output port allocated.
4 | network_0/router_level3_1 | Completed crossbar traversal for flit 1 from input 3.0 to output 9.0.
4 | network_0/router_level3_1 | Buffering flit 1 at output 9.
4 | network_0/router_level3_1 | Completed crossbar traversal for flit 2 from input 4.0 to output 13.0.
4 | network_0/router_level3_1 | Buffering flit 2 at output 13.
4 | network_0/router_level3_1 | Completed crossbar traversal for flit 3 from input 5.0 to output 11.0.
4 | network_0/router_level3_1 | Buffering flit 3 at output 11.
4 | network_0/router_level3_2 | Beginning crossbar traversal for flit 6 from input 2.0 to output 8.0.
4 | network_0/router_level3_2 | Beginning crossbar traversal for flit 7 from input 3.0 to output 9.0.
4 | network_0/router_level3_2 | Beginning crossbar traversal for flit 8 from input 4.0 to output 12.0.
4 | network_0/router_level3_2 | Completed crossbar traversal for flit 6 from input 2.0 to output 8.0.
4 | network_0/router_level3_2 | Buffering flit 6 at output 8.
4 | network_0/router_level3_2 | Completed crossbar traversal for flit 7 from input 3.0 to output 9.0.
4 | network_0/router_level3_2 | Buffering flit 7 at output 9.
4 | network_0/router_level3_2 | Completed crossbar traversal for flit 8 from input 4.0 to output 12.0.
4 | network_0/router_level3_2 | Buffering flit 8 at output 12.
4 | network_0/router_level3_3 | Beginning crossbar traversal for flit 9 from input 6.0 to output 9.0.
4 | network_0/router_level3_3 | Beginning crossbar traversal for flit 10 from input 7.0 to output 12.0.
4 | network_0/router_level3_3 | Completed crossbar traversal for flit 9 from input 6.0 to output 9.0.
4 | network_0/router_level3_3 | Buffering flit 9 at output 9.
4 | network_0/router_level3_3 | Completed crossbar traversal for flit 10 from input 7.0 to output 12.0.
4 | network_0/router_level3_3 | Buffering flit 10 at output 12.
4 | network_0/router_level3_1 | Sending flit 1 to channel at output 9.
4 | network_0/router_level3_1 | Sending flit 3 to channel at output 11.
4 | network_0/router_level3_1 | Sending flit 2 to channel at output 13.
4 | network_0/router_level3_2 | Sending flit 6 to channel at output 8.
4 | network_0/router_level3_2 | Sending flit 7 to channel at output 9.
4 | network_0/router_level3_2 | Sending flit 8 to channel at output 12.
4 | network_0/router_level3_3 | Sending flit 9 to channel at output 9.
4 | network_0/router_level3_3 | Sending flit 10 to channel at output 12.
5 | network_0/network_0_fchan_20489 | Beginning channel traversal for flit 1 with delay 1.
5 | network_0/network_0_fchan_20491 | Beginning channel traversal for flit 3 with delay 1.
5 | network_0/network_0_fchan_20493 | Beginning channel traversal for flit 2 with delay 1.
5 | network_0/network_0_fchan_20496 | Beginning channel traversal for flit 6 with delay 1.
5 | network_0/network_0_fchan_20497 | Beginning channel traversal for flit 7 with delay 1.
5 | network_0/network_0_fchan_20500 | Beginning channel traversal for flit 8 with delay 1.
5 | network_0/network_0_fchan_20505 | Beginning channel traversal for flit 9 with delay 1.
5 | network_0/network_0_fchan_20508 | Beginning channel traversal for flit 10 with delay 1.
5 | network_0/router_level3_1 | Beginning switch allocation for VC 0 at input 7 (front: 5).
5 | network_0/router_level3_1 |   Requesting output 11.0 (non-spec, pri: 0).
5 | network_0/router_level3_1 | Beginning switch allocation for VC 0 at input 6 (front: 4).
5 | network_0/router_level3_1 |   Requesting output 12.0 (non-spec, pri: 0).
5 | network_0/router_level3_1/sw_allocator | Input requests = [ 0 -> [ 8@0 ]  1 -> [ 14@0 ]  5 -> [ 15@0 ]  6 -> [ 12@0 ]  7 -> [ 11@0 ]  ], output requests = [ 8 -> [ 0@0 ]  11 -> [ 7@0 ]  12 -> [ 6@0 ]  14 -> [ 1@0 ]  15 -> [ 5@0 ]  ].
5 | network_0/router_level3_1/sw_allocator | Input grants = [ 0 -> 8  1 -> 14  5 -> 15  6 -> 12  7 -> 11  ], output grants = [ 8 -> 0  11 -> 7  12 -> 6  14 -> 1  15 -> 5  ].
5 | network_0/router_level3_1 | Assigning output 11.0 to VC 0 at input 7.0.
5 | network_0/router_level3_1 | Assigning output 12.0 to VC 0 at input 6.0.
5 | network_0/router_level3_1 | Completed switch allocation for VC 0 at input 7 (front: 5).
5 | network_0/router_level3_1 |   Scheduling switch connection from input 7.0 to output 11.0.
5 | network_0/router_level3_1 | Updating lookahead routing information for flit 5.
5 | network_0/router_level3_1 | Completed switch allocation for VC 0 at input 6 (front: 4).
5 | network_0/router_level3_1 |   Scheduling switch connection from input 6.0 to output 12.0.
5 | network_0/router_level3_1 | Updating lookahead routing information for flit 4.
5 | network_0/network_0_fchan_20489 | Completed channel traversal for flit 1.
5 | network_0/network_0_fchan_20491 | Completed channel traversal for flit 3.
5 | network_0/network_0_fchan_20493 | Completed channel traversal for flit 2.
5 | network_0/network_0_fchan_20496 | Completed channel traversal for flit 6.
5 | network_0/network_0_fchan_20497 | Completed channel traversal for flit 7.
5 | network_0/network_0_fchan_20500 | Completed channel traversal for flit 8.
5 | network_0/network_0_fchan_20505 | Completed channel traversal for flit 9.
5 | network_0/network_0_fchan_20508 | Completed channel traversal for flit 10.
6 | network_0/router_level2_0 | Received flit 6 from channel at input 2.
6 | network_0/router_level2_1 | Received flit 1 from channel at input 1.
6 | network_0/router_level2_1 | Received flit 7 from channel at input 2.
6 | network_0/router_level2_1 | Received flit 9 from channel at input 3.
6 | network_0/router_level2_3 | Received flit 3 from channel at input 1.
6 | network_0/router_level2_4 | Received flit 8 from channel at input 2.
6 | network_0/router_level2_4 | Received flit 10 from channel at input 3.
6 | network_0/router_level2_5 | Received flit 2 from channel at input 1.
6 | network_0/router_level2_0 | Adding flit 6 to VC 0 at input 2 (state: idle, empty).
6 | network_0/router_level2_0 | Using precomputed lookahead routing information for VC 0 at input 2 (front: 6).
6 | network_0/router_level2_0/buf_2/vc_0 | Changing state from idle to vc_alloc.
6 | network_0/router_level2_0 | Beginning VC allocation for VC 0 at input 2 (front: 6).
6 | network_0/router_level2_0 |   Requesting VC 0 at output 15 (in_pri: 0, out_pri: 0).
6 | network_0/router_level2_0 |   Requesting VC 1 at output 15 (in_pri: 0, out_pri: 0).
6 | network_0/router_level2_0 |   Requesting VC 2 at output 15 (in_pri: 0, out_pri: 0).
6 | network_0/router_level2_0 |   Requesting VC 3 at output 15 (in_pri: 0, out_pri: 0).
6 | network_0/router_level2_0/vc_allocator | Input requests = [ 8 -> [ 60@0 61@0 62@0 63@0 ]  20 -> [ 52@0 53@0 54@0 55@0 ]  24 -> [ 40@0 41@0 42@0 43@0 ]  ], output requests = [ 40 -> [ 24@0 ]  41 -> [ 24@0 ]  42 -> [ 24@0 ]  43 -> [ 24@0 ]  52 -> [ 20@0 ]  53 -> [ 20@0 ]  54 -> [ 20@0 ]  55 -> [ 20@0 ]  60 -> [ 8@0 ]  61 -> [ 8@0 ]  62 -> [ 8@0 ]  63 -> [ 8@0 ]  ].
6 | network_0/router_level2_0/vc_allocator | Input grants = [ 8 -> 60  20 -> 52  24 -> 40  ], output grants = [ 40 -> 24  52 -> 20  60 -> 8  ].
6 | network_0/router_level2_0 | Assigning VC 0 at output 15 to VC 0 at input 2.
6 | network_0/router_level2_0 | Completed VC allocation for VC 0 at input 2 (front: 6).
6 | network_0/router_level2_0 |   Acquiring assigned VC 0 at output 15.
6 | network_0/router_level2_0/buf_2/vc_0 | Changing state from vc_alloc to active.
6 | network_0/router_level2_1 | Adding flit 1 to VC 0 at input 1 (state: idle, empty).
6 | network_0/router_level2_1 | Using precomputed lookahead routing information for VC 0 at input 1 (front: 1).
6 | network_0/router_level2_1/buf_1/vc_0 | Changing state from idle to vc_alloc.
6 | network_0/router_level2_1 | Adding flit 7 to VC 0 at input 2 (state: idle, empty).
6 | network_0/router_level2_1 | Using precomputed lookahead routing information for VC 0 at input 2 (front: 7).
6 | network_0/router_level2_1/buf_2/vc_0 | Changing state from idle to vc_alloc.
6 | network_0/router_level2_1 | Adding flit 9 to VC 0 at input 3 (state: idle, empty).
6 | network_0/router_level2_1 | Using precomputed lookahead routing information for VC 0 at input 3 (front: 9).
6 | network_0/router_level2_1/buf_3/vc_0 | Changing state from idle to vc_alloc.
6 | network_0/router_level2_1 | Beginning VC allocation for VC 0 at input 1 (front: 1).
6 | network_0/router_level2_1 |   Requesting VC 0 at output 11 (in_pri: 0, out_pri: 0).
6 | network_0/router_level2_1 |   Requesting VC 1 at output 11 (in_pri: 0, out_pri: 0).
6 | network_0/router_level2_1 |   Requesting VC 2 at output 11 (in_pri: 0, out_pri: 0).
6 | network_0/router_level2_1 |   Requesting VC 3 at output 11 (in_pri: 0, out_pri: 0).
6 | network_0/router_level2_1 | Beginning VC allocation for VC 0 at input 2 (front: 7).
6 | network_0/router_level2_1 |   Requesting VC 0 at output 13 (in_pri: 0, out_pri: 0).
6 | network_0/router_level2_1 |   Requesting VC 1 at output 13 (in_pri: 0, out_pri: 0).
6 | network_0/router_level2_1 |   Requesting VC 2 at output 13 (in_pri: 0, out_pri: 0).
6 | network_0/router_level2_1 |   Requesting VC 3 at output 13 (in_pri: 0, out_pri: 0).
6 | network_0/router_level2_1 | Beginning VC allocation for VC 0 at input 3 (front: 9).
6 | network_0/router_level2_1 |   Requesting VC 0 at output 15 (in_pri: 0, out_pri: 0).
6 | network_0/router_level2_1 |   Requesting VC 1 at output 15 (in_pri: 0, out_pri: 0).
6 | network_0/router_level2_1 |   Requesting VC 2 at output 15 (in_pri: 0, out_pri: 0).
6 | network_0/router_level2_1 |   Requesting VC 3 at output 15 (in_pri: 0, out_pri: 0).
6 | network_0/router_level2_1/vc_allocator | Input requests = [ 4 -> [ 44@0 45@0 46@0 47@0 ]  8 -> [ 52@0 53@0 54@0 55@0 ]  12 -> [ 60@0 61@0 62@0 63@0 ]  24 -> [ 44@0 45@0 46@0 47@0 ]  28 -> [ 52@0 53@0 54@0 55@0 ]  ], output requests = [ 44 -> [ 4@0 24@0 ]  45 -> [ 4@0 24@0 ]  46 -> [ 4@0 24@0 ]  47 -> [ 4@0 24@0 ]  52 -> [ 8@0 28@0 ]  53 -> [ 8@0 28@0 ]  54 -> [ 8@0 28@0 ]  55 -> [ 8@0 28@0 ]  60 -> [ 12@0 ]  61 -> [ 12@0 ]  62 -> [ 12@0 ]  63 -> [ 12@0 ]  ].
6 | network_0/router_level2_1/vc_allocator | Input grants = [ 4 -> 44  8 -> 52  12 -> 60  ], output grants = [ 44 -> 4  52 -> 8  60 -> 12  ].
6 | network_0/router_level2_1 | Assigning VC 0 at output 11 to VC 0 at input 1.
6 | network_0/router_level2_1 | Assigning VC 0 at output 13 to VC 0 at input 2.
6 | network_0/router_level2_1 | Assigning VC 0 at output 15 to VC 0 at input 3.
6 | network_0/router_level2_1 | Completed VC allocation for VC 0 at input 1 (front: 1).
6 | network_0/router_level2_1 |   Acquiring assigned VC 0 at output 11.
6 | network_0/router_level2_1/buf_1/vc_0 | Changing state from vc_alloc to active.
6 | network_0/router_level2_1 | Completed VC allocation for VC 0 at input 2 (front: 7).
6 | network_0/router_level2_1 |   Acquiring assigned VC 0 at output 13.
6 | network_0/router_level2_1/buf_2/vc_0 | Changing state from vc_alloc to active.
6 | network_0/router_level2_1 | Completed VC allocation for VC 0 at input 3 (front: 9).
6 | network_0/router_level2_1 |   Acquiring assigned VC 0 at output 15.
6 | network_0/router_level2_1/buf_3/vc_0 | Changing state from vc_alloc to active.
6 | network_0/router_level2_3 | Adding flit 3 to VC 0 at input 1 (state: idle, empty).
6 | network_0/router_level2_3 | Using precomputed lookahead routing information for VC 0 at input 1 (front: 3).
6 | network_0/router_level2_3/buf_1/vc_0 | Changing state from idle to vc_alloc.
6 | network_0/router_level2_3 | Beginning VC allocation for VC 0 at input 1 (front: 3).
6 | network_0/router_level2_3 |   Requesting VC 0 at output 14 (in_pri: 0, out_pri: 0).
6 | network_0/router_level2_3 |   Requesting VC 1 at output 14 (in_pri: 0, out_pri: 0).
6 | network_0/router_level2_3 |   Requesting VC 2 at output 14 (in_pri: 0, out_pri: 0).
6 | network_0/router_level2_3 |   Requesting VC 3 at output 14 (in_pri: 0, out_pri: 0).
6 | network_0/router_level2_3/vc_allocator | Input requests = [ 4 -> [ 56@0 57@0 58@0 59@0 ]  ], output requests = [ 56 -> [ 4@0 ]  57 -> [ 4@0 ]  58 -> [ 4@0 ]  59 -> [ 4@0 ]  ].
6 | network_0/router_level2_3/vc_allocator | Input grants = [ 4 -> 56  ], output grants = [ 56 -> 4  ].
6 | network_0/router_level2_3 | Assigning VC 0 at output 14 to VC 0 at input 1.
6 | network_0/router_level2_3 | Completed VC allocation for VC 0 at input 1 (front: 3).
6 | network_0/router_level2_3 |   Acquiring assigned VC 0 at output 14.
6 | network_0/router_level2_3/buf_1/vc_0 | Changing state from vc_alloc to active.
6 | network_0/router_level2_4 | Adding flit 8 to VC 0 at input 2 (state: idle, empty).
6 | network_0/router_level2_4 | Using precomputed lookahead routing information for VC 0 at input 2 (front: 8).
6 | network_0/router_level2_4/buf_2/vc_0 | Changing state from idle to vc_alloc.
6 | network_0/router_level2_4 | Adding flit 10 to VC 0 at input 3 (state: idle, empty).
6 | network_0/router_level2_4 | Using precomputed lookahead routing information for VC 0 at input 3 (front: 10).
6 | network_0/router_level2_4/buf_3/vc_0 | Changing state from idle to vc_alloc.
6 | network_0/router_level2_4 | Beginning VC allocation for VC 0 at input 2 (front: 8).
6 | network_0/router_level2_4 |   Requesting VC 0 at output 8 (in_pri: 0, out_pri: 0).
6 | network_0/router_level2_4 |   Requesting VC 1 at output 8 (in_pri: 0, out_pri: 0).
6 | network_0/router_level2_4 |   Requesting VC 2 at output 8 (in_pri: 0, out_pri: 0).
6 | network_0/router_level2_4 |   Requesting VC 3 at output 8 (in_pri: 0, out_pri: 0).
6 | network_0/router_level2_4 | Beginning VC allocation for VC 0 at input 3 (front: 10).
6 | network_0/router_level2_4 |   Requesting VC 0 at output 14 (in_pri: 0, out_pri: 0).
6 | network_0/router_level2_4 |   Requesting VC 1 at output 14 (in_pri: 0, out_pri: 0).
6 | network_0/router_level2_4 |   Requesting VC 2 at output 14 (in_pri: 0, out_pri: 0).
6 | network_0/router_level2_4 |   Requesting VC 3 at output 14 (in_pri: 0, out_pri: 0).
6 | network_0/router_level2_4/vc_allocator | Input requests = [ 4 -> [ 56@0 57@0 58@0 59@0 ]  8 -> [ 32@0 33@0 34@0 35@0 ]  12 -> [ 56@0 57@0 58@0 59@0 ]  20 -> [ 52@0 53@0 54@0 55@0 ]  ], output requests = [ 32 -> [ 8@0 ]  33 -> [ 8@0 ]  34 -> [ 8@0 ]  35 -> [ 8@0 ]  52 -> [ 20@0 ]  53 -> [ 20@0 ]  54 -> [ 20@0 ]  55 -> [ 20@0 ]  56 -> [ 4@0 12@0 ]  57 -> [ 4@0 12@0 ]  58 -> [ 4@0 12@0 ]  59 -> [ 4@0 12@0 ]  ].
6 | network_0/router_level2_4/vc_allocator | Input grants = [ 4 -> 56  8 -> 32  20 -> 52  ], output grants = [ 32 -> 8  52 -> 20  56 -> 4  ].
6 | network_0/router_level2_4 | Assigning VC 0 at output 8 to VC 0 at input 2.
6 | network_0/router_level2_4 | VC allocation failed for VC 0 at input 3.
6 | network_0/router_level2_4 | Completed VC allocation for VC 0 at input 2 (front: 8).
6 | network_0/router_level2_4 |   Acquiring assigned VC 0 at output 8.
6 | network_0/router_level2_4/buf_2/vc_0 | Changing state from vc_alloc to active.
6 | network_0/router_level2_4 | Completed VC allocation for VC 0 at input 3 (front: 10).
6 | network_0/router_level2_4 |   No output VC allocated.
6 | network_0/router_level2_5 | Adding flit 2 to VC 0 at input 1 (state: idle, empty).
6 | network_0/router_level2_5 | Using precomputed lookahead routing information for VC 0 at input 1 (front: 2).
6 | network_0/router_level2_5/buf_1/vc_0 | Changing state from idle to vc_alloc.
6 | network_0/router_level2_5 | Beginning VC allocation for VC 0 at input 1 (front: 2).
6 | network_0/router_level2_5 |   Requesting VC 0 at output 11 (in_pri: 0, out_pri: 0).
6 | network_0/router_level2_5 |   Requesting VC 1 at output 11 (in_pri: 0, out_pri: 0).
6 | network_0/router_level2_5 |   Requesting VC 2 at output 11 (in_pri: 0, out_pri: 0).
6 | network_0/router_level2_5 |   Requesting VC 3 at output 11 (in_pri: 0, out_pri: 0).
6 | network_0/router_level2_5/vc_allocator | Input requests = [ 4 -> [ 44@0 45@0 46@0 47@0 ]  16 -> [ 36@0 37@0 38@0 39@0 ]  ], output requests = [ 36 -> [ 16@0 ]  37 -> [ 16@0 ]  38 -> [ 16@0 ]  39 -> [ 16@0 ]  44 -> [ 4@0 ]  45 -> [ 4@0 ]  46 -> [ 4@0 ]  47 -> [ 4@0 ]  ].
6 | network_0/router_level2_5/vc_allocator | Input grants = [ 4 -> 44  16 -> 36  ], output grants = [ 36 -> 16  44 -> 4  ].
6 | network_0/router_level2_5 | Assigning VC 0 at output 11 to VC 0 at input 1.
6 | network_0/router_level2_5 | Completed VC allocation for VC 0 at input 1 (front: 2).
6 | network_0/router_level2_5 |   Acquiring assigned VC 0 at output 11.
6 | network_0/router_level2_5/buf_1/vc_0 | Changing state from vc_alloc to active.
6 | network_0/router_level3_1 | Beginning crossbar traversal for flit 5 from input 7.0 to output 11.0.
6 | network_0/router_level3_1 | Beginning crossbar traversal for flit 4 from input 6.0 to output 12.0.
6 | network_0/router_level3_1 | Completed crossbar traversal for flit 5 from input 7.0 to output 11.0.
6 | network_0/router_level3_1 | Buffering flit 5 at output 11.
6 | network_0/router_level3_1 | Completed crossbar traversal for flit 4 from input 6.0 to output 12.0.
6 | network_0/router_level3_1 | Buffering flit 4 at output 12.
6 | network_0/router_level3_1 | Sending flit 5 to channel at output 11.
6 | network_0/router_level3_1 | Sending flit 4 to channel at output 12.
7 | network_0/network_0_fchan_20491 | Beginning channel traversal for flit 5 with delay 1.
7 | network_0/network_0_fchan_20492 | Beginning channel traversal for flit 4 with delay 1.
7 | network_0/router_level2_0 | Beginning switch allocation for VC 0 at input 2 (front: 6).
7 | network_0/router_level2_0 |   Requesting output 15.0 (non-spec, pri: 0).
7 | network_0/router_level2_0/sw_allocator | Input requests = [ 2 -> [ 15@0 ]  5 -> [ 13@0 ]  6 -> [ 10@0 ]  ], output requests = [ 10 -> [ 6@0 ]  13 -> [ 5@0 ]  15 -> [ 2@0 ]  ].
7 | network_0/router_level2_0/sw_allocator | Input grants = [ 2 -> 15  5 -> 13  6 -> 10  ], output grants = [ 10 -> 6  13 -> 5  15 -> 2  ].
7 | network_0/router_level2_0 | Assigning output 15.0 to VC 0 at input 2.0.
7 | network_0/router_level2_0 | Completed switch allocation for VC 0 at input 2 (front: 6).
7 | network_0/router_level2_0 |   Scheduling switch connection from input 2.0 to output 15.0.
7 | network_0/router_level2_0 | Updating lookahead routing information for flit 6.
7 | network_0/router_level2_1 | Beginning switch allocation for VC 0 at input 1 (front: 1).
7 | network_0/router_level2_1 |   Requesting output 11.0 (non-spec, pri: 0).
7 | network_0/router_level2_1 | Beginning switch allocation for VC 0 at input 2 (front: 7).
7 | network_0/router_level2_1 |   Requesting output 13.0 (non-spec, pri: 0).
7 | network_0/router_level2_1 | Beginning switch allocation for VC 0 at input 3 (front: 9).
7 | network_0/router_level2_1 |   Requesting output 15.0 (non-spec, pri: 0).
7 | network_0/router_level2_1/sw_allocator | Input requests = [ 1 -> [ 11@0 ]  2 -> [ 13@0 ]  3 -> [ 15@0 ]  ], output requests = [ 11 -> [ 1@0 ]  13 -> [ 2@0 ]  15 -> [ 3@0 ]  ].
7 | network_0/router_level2_1/sw_allocator | Input grants = [ 1 -> 11  2 -> 13  3 -> 15  ], output grants = [ 11 -> 1  13 -> 2  15 -> 3  ].
7 | network_0/router_level2_1 | Assigning output 11.0 to VC 0 at input 1.0.
7 | network_0/router_level2_1 | Assigning output 13.0 to VC 0 at input 2.0.
7 | network_0/router_level2_1 | Assigning output 15.0 to VC 0 at input 3.0.
7 | network_0/router_level2_1 | Completed switch allocation for VC 0 at input 1 (front: 1).
7 | network_0/router_level2_1 |   Scheduling switch connection from input 1.0 to output 11.0.
7 | network_0/router_level2_1 | Updating lookahead routing information for flit 1.
7 | network_0/router_level2_1 | Completed switch allocation for VC 0 at input 2 (front: 7).
7 | network_0/router_level2_1 |   Scheduling switch connection from input 2.0 to output 13.0.
7 | network_0/router_level2_1 | Updating lookahead routing information for flit 7.
7 | network_0/router_level2_1 | Completed switch allocation for VC 0 at input 3 (front: 9).
7 | network_0/router_level2_1 |   Scheduling switch connection from input 3.0 to output 15.0.
7 | network_0/router_level2_1 | Updating lookahead routing information for flit 9.
7 | network_0/router_level2_3 | Beginning switch allocation for VC 0 at input 1 (front: 3).
7 | network_0/router_level2_3 |   Requesting output 14.0 (non-spec, pri: 0).
7 | network_0/router_level2_3/sw_allocator | Input requests = [ 1 -> [ 14@0 ]  ], output requests = [ 14 -> [ 1@0 ]  ].
7 | network_0/router_level2_3/sw_allocator | Input grants = [ 1 -> 14  ], output grants = [ 14 -> 1  ].
7 | network_0/router_level2_3 | Assigning output 14.0 to VC 0 at input 1.0.
7 | network_0/router_level2_3 | Completed switch allocation for VC 0 at input 1 (front: 3).
7 | network_0/router_level2_3 |   Scheduling switch connection from input 1.0 to output 14.0.
7 | network_0/router_level2_3 | Updating lookahead routing information for flit 3.
7 | network_0/router_level2_4 | Beginning VC allocation for VC 0 at input 3 (front: 10).
7 | network_0/router_level2_4 |   VC 0 at output 14 is in use by VC 0 at input 1 (front flit: 0).
7 | network_0/router_level2_4 |   Requesting VC 1 at output 14 (in_pri: 0, out_pri: 0).
7 | network_0/router_level2_4 |   Requesting VC 2 at output 14 (in_pri: 0, out_pri: 0).
7 | network_0/router_level2_4 |   Requesting VC 3 at output 14 (in_pri: 0, out_pri: 0).
7 | network_0/router_level2_4/vc_allocator | Input requests = [ 0 -> [ 57@0 58@0 59@0 ]  9 -> [ 33@0 34@0 35@0 ]  12 -> [ 57@0 58@0 59@0 ]  21 -> [ 48@0 49@0 50@0 51@0 ]  28 -> [ 57@0 58@0 59@0 ]  ], output requests = [ 33 -> [ 9@0 ]  34 -> [ 9@0 ]  35 -> [ 9@0 ]  48 -> [ 21@0 ]  49 -> [ 21@0 ]  50 -> [ 21@0 ]  51 -> [ 21@0 ]  57 -> [ 0@0 12@0 28@0 ]  58 -> [ 0@0 12@0 28@0 ]  59 -> [ 0@0 12@0 28@0 ]  ].
7 | network_0/router_level2_4/vc_allocator | Input grants = [ 0 -> 57  9 -> 33  21 -> 48  ], output grants = [ 33 -> 9  48 -> 21  57 -> 0  ].
7 | network_0/router_level2_4 | VC allocation failed for VC 0 at input 3.
7 | network_0/router_level2_4 | Beginning switch allocation for VC 0 at input 2 (front: 8).
7 | network_0/router_level2_4 |   Requesting output 8.0 (non-spec, pri: 0).
7 | network_0/router_level2_4/sw_allocator | Input requests = [ 1 -> [ 14@0 ]  2 -> [ 8@0 ]  5 -> [ 13@0 ]  ], output requests = [ 8 -> [ 2@0 ]  13 -> [ 5@0 ]  14 -> [ 1@0 ]  ].
7 | network_0/router_level2_4/sw_allocator | Input grants = [ 1 -> 14  2 -> 8  5 -> 13  ], output grants = [ 8 -> 2  13 -> 5  14 -> 1  ].
7 | network_0/router_level2_4 | Assigning output 8.0 to VC 0 at input 2.0.
7 | network_0/router_level2_4 | Completed VC allocation for VC 0 at input 3 (front: 10).
7 | network_0/router_level2_4 |   No output VC allocated.
7 | network_0/router_level2_4 | Completed switch allocation for VC 0 at input 2 (front: 8).
7 | network_0/router_level2_4 |   Scheduling switch connection from input 2.0 to output 8.0.
7 | network_0/router_level2_4 | Updating lookahead routing information for flit 8.
7 | network_0/router_level2_5 | Beginning switch allocation for VC 0 at input 1 (front: 2).
7 | network_0/router_level2_5 |   Requesting output 11.0 (non-spec, pri: 0).
7 | network_0/router_level2_5/sw_allocator | Input requests = [ 1 -> [ 11@0 ]  4 -> [ 9@0 ]  ], output requests = [ 9 -> [ 4@0 ]  11 -> [ 1@0 ]  ].
7 | network_0/router_level2_5/sw_allocator | Input grants = [ 1 -> 11  4 -> 9  ], output grants = [ 9 -> 4  11 -> 1  ].
7 | network_0/router_level2_5 | Assigning output 11.0 to VC 0 at input 1.0.
7 | network_0/router_level2_5 | Completed switch allocation for VC 0 at input 1 (front: 2).
7 | network_0/router_level2_5 |   Scheduling switch connection from input 1.0 to output 11.0.
7 | network_0/router_level2_5 | Updating lookahead routing information for flit 2.
7 | network_0/network_0_fchan_20491 | Completed channel traversal for flit 5.
7 | network_0/network_0_fchan_20492 | Completed channel traversal for flit 4.
8 | network_0/router_level2_3 | Received flit 5 from channel at input 1.
8 | network_0/router_level2_4 | Received flit 4 from channel at input 1.
8 | network_0/router_level2_0 | Beginning crossbar traversal for flit 6 from input 2.0 to output 15.0.
8 | network_0/router_level2_0 | Completed crossbar traversal for flit 6 from input 2.0 to output 15.0.
8 | network_0/router_level2_0 | Buffering flit 6 at output 15.
8 | network_0/router_level2_1 | Beginning crossbar traversal for flit 1 from input 1.0 to output 11.0.
8 | network_0/router_level2_1 | Beginning crossbar traversal for flit 7 from input 2.0 to output 13.0.
8 | network_0/router_level2_1 | Beginning crossbar traversal for flit 9 from input 3.0 to output 15.0.
8 | network_0/router_level2_1 | Completed crossbar traversal for flit 1 from input 1.0 to output 11.0.
8 | network_0/router_level2_1 | Buffering flit 1 at output 11.
8 | network_0/router_level2_1 | Completed crossbar traversal for flit 7 from input 2.0 to output 13.0.
8 | network_0/router_level2_1 | Buffering flit 7 at output 13.
8 | network_0/router_level2_1 | Completed crossbar traversal for flit 9 from input 3.0 to output 15.0.
8 | network_0/router_level2_1 | Buffering flit 9 at output 15.
8 | network_0/router_level2_3 | Adding flit 5 to VC 0 at input 1 (state: idle, empty).
8 | network_0/router_level2_3 | Using precomputed lookahead routing information for VC 0 at input 1 (front: 5).
8 | network_0/router_level2_3/buf_1/vc_0 | Changing state from idle to vc_alloc.
8 | network_0/router_level2_3 | Beginning VC allocation for VC 0 at input 1 (front: 5).
8 | network_0/router_level2_3 |   VC 0 at output 15 is in use by VC 0 at input 5 (front flit: 1598).
8 | network_0/router_level2_3 |   Requesting VC 1 at output 15 (in_pri: 0, out_pri: 0).
8 | network_0/router_level2_3 |   Requesting VC 2 at output 15 (in_pri: 0, out_pri: 0).
8 | network_0/router_level2_3 |   Requesting VC 3 at output 15 (in_pri: 0, out_pri: 0).
8 | network_0/router_level2_3/vc_allocator | Input requests = [ 0 -> [ 44@0 45@0 46@0 47@0 ]  4 -> [ 61@0 62@0 63@0 ]  8 -> [ 61@0 62@0 63@0 ]  12 -> [ 36@0 37@0 38@0 39@0 ]  28 -> [ 61@0 62@0 63@0 ]  29 -> [ 40@0 41@0 42@0 43@0 ]  ], output requests = [ 36 -> [ 12@0 ]  37 -> [ 12@0 ]  38 -> [ 12@0 ]  39 -> [ 12@0 ]  40 -> [ 29@0 ]  41 -> [ 29@0 ]  42 -> [ 29@0 ]  43 -> [ 29@0 ]  44 -> [ 0@0 ]  45 -> [ 0@0 ]  46 -> [ 0@0 ]  47 -> [ 0@0 ]  61 -> [ 4@0 8@0 28@0 ]  62 -> [ 4@0 8@0 28@0 ]  63 -> [ 4@0 8@0 28@0 ]  ].
8 | network_0/router_level2_3/vc_allocator | Input grants = [ 0 -> 44  4 -> 61  12 -> 36  29 -> 40  ], output grants = [ 36 -> 12  40 -> 29  44 -> 0  61 -> 4  ].
8 | network_0/router_level2_3 | Assigning VC 1 at output 15 to VC 0 at input 1.
8 | network_0/router_level2_3 | Beginning crossbar traversal for flit 3 from input 1.0 to output 14.0.
8 | network_0/router_level2_3 | Completed VC allocation for VC 0 at input 1 (front: 5).
8 | network_0/router_level2_3 |   Acquiring assigned VC 1 at output 15.
8 | network_0/router_level2_3/buf_1/vc_0 | Changing state from vc_alloc to active.
8 | network_0/router_level2_3 | Completed crossbar traversal for flit 3 from input 1.0 to output 14.0.
8 | network_0/router_level2_3 | Buffering flit 3 at output 14.
8 | network_0/router_level2_4 | Adding flit 4 to VC 1 at input 1 (state: idle, empty).
8 | network_0/router_level2_4 | Using precomputed lookahead routing information for VC 1 at input 1 (front: 4).
8 | network_0/router_level2_4/buf_1/vc_1 | Changing state from idle to vc_alloc.
8 | network_0/router_level2_4 | Beginning VC allocation for VC 0 at input 3 (front: 10).
8 | network_0/router_level2_4 |   Requesting VC 0 at output 14 (in_pri: 0, out_pri: 0).
8 | network_0/router_level2_4 |   VC 1 at output 14 is in use by VC 0 at input 0 (front flit: 1585).
8 | network_0/router_level2_4 |   Requesting VC 2 at output 14 (in_pri: 0, out_pri: 0).
8 | network_0/router_level2_4 |   Requesting VC 3 at output 14 (in_pri: 0, out_pri: 0).
8 | network_0/router_level2_4 | Beginning VC allocation for VC 1 at input 1 (front: 4).
8 | network_0/router_level2_4 |   Requesting VC 0 at output 15 (in_pri: 0, out_pri: 0).
8 | network_0/router_level2_4 |   Requesting VC 1 at output 15 (in_pri: 0, out_pri: 0).
8 | network_0/router_level2_4 |   Requesting VC 2 at output 15 (in_pri: 0, out_pri: 0).
8 | network_0/router_level2_4 |   Requesting VC 3 at output 15 (in_pri: 0, out_pri: 0).
8 | network_0/router_level2_4/vc_allocator | Input requests = [ 5 -> [ 60@0 61@0 62@0 63@0 ]  12 -> [ 56@0 58@0 59@0 ]  16 -> [ 52@0 53@0 54@0 55@0 ]  20 -> [ 52@0 53@0 54@0 55@0 ]  28 -> [ 56@0 58@0 59@0 ]  ], output requests = [ 52 -> [ 16@0 20@0 ]  53 -> [ 16@0 20@0 ]  54 -> [ 16@0 20@0 ]  55 -> [ 16@0 20@0 ]  56 -> [ 12@0 28@0 ]  58 -> [ 12@0 28@0 ]  59 -> [ 12@0 28@0 ]  60 -> [ 5@0 ]  61 -> [ 5@0 ]  62 -> [ 5@0 ]  63 -> [ 5@0 ]  ].
8 | network_0/router_level2_4/vc_allocator | Input grants = [ 5 -> 60  12 -> 56  16 -> 52  20 -> 53  ], output grants = [ 52 -> 16  53 -> 20  56 -> 12  60 -> 5  ].
8 | network_0/router_level2_4 | Assigning VC 0 at output 14 to VC 0 at input 3.
8 | network_0/router_level2_4 | Assigning VC 0 at output 15 to VC 1 at input 1.
8 | network_0/router_level2_4 | Beginning crossbar traversal for flit 8 from input 2.0 to output 8.0.
8 | network_0/router_level2_4 | Completed VC allocation for VC 0 at input 3 (front: 10).
8 | network_0/router_level2_4 |   Acquiring assigned VC 0 at output 14.
8 | network_0/router_level2_4/buf_3/vc_0 | Changing state from vc_alloc to active.
8 | network_0/router_level2_4 | Completed VC allocation for VC 1 at input 1 (front: 4).
8 | network_0/router_level2_4 |   Acquiring assigned VC 0 at output 15.
8 | network_0/router_level2_4/buf_1/vc_1 | Changing state from vc_alloc to active.
8 | network_0/router_level2_4 | Completed crossbar traversal for flit 8 from input 2.0 to output 8.0.
8 | network_0/router_level2_4 | Buffering flit 8 at output 8.
8 | network_0/router_level2_5 | Beginning crossbar traversal for flit 2 from input 1.0 to output 11.0.
8 | network_0/router_level2_5 | Completed crossbar traversal for flit 2 from input 1.0 to output 11.0.
8 | network_0/router_level2_5 | Buffering flit 2 at output 11.
8 | network_0/router_level2_0 | Sending flit 6 to channel at output 15.
8 | network_0/router_level2_1 | Sending flit 1 to channel at output 11.
8 | network_0/router_level2_1 | Sending flit 7 to channel at output 13.
8 | network_0/router_level2_1 | Sending flit 9 to channel at output 15.
8 | network_0/router_level2_3 | Sending flit 3 to channel at output 14.
8 | network_0/router_level2_4 | Sending flit 8 to channel at output 8.
8 | network_0/router_level2_5 | Sending flit 2 to channel at output 11.
9 | network_0/network_0_fchan_12295 | Beginning channel traversal for flit 6 with delay 1.
9 | network_0/network_0_fchan_12299 | Beginning channel traversal for flit 1 with delay 1.
9 | network_0/network_0_fchan_12301 | Beginning channel traversal for flit 7 with delay 1.
9 | network_0/network_0_fchan_12303 | Beginning channel traversal for flit 9 with delay 1.
9 | network_0/network_0_fchan_12318 | Beginning channel traversal for flit 3 with delay 1.
9 | network_0/network_0_fchan_12320 | Beginning channel traversal for flit 8 with delay 1.
9 | network_0/network_0_fchan_12331 | Beginning channel traversal for flit 2 with delay 1.
9 | network_0/router_level2_3 | Beginning switch allocation for VC 0 at input 1 (front: 5).
9 | network_0/router_level2_3 |   Requesting output 15.0 (non-spec, pri: 0).
9 | network_0/router_level2_3/sw_allocator | Input requests = [ 0 -> [ 11@0 ]  1 -> [ 15@0 ]  3 -> [ 9@0 ]  7 -> [ 10@0 ]  ], output requests = [ 9 -> [ 3@0 ]  10 -> [ 7@0 ]  11 -> [ 0@0 ]  15 -> [ 1@0 ]  ].
9 | network_0/router_level2_3/sw_allocator | Input grants = [ 0 -> 11  1 -> 15  3 -> 9  7 -> 10  ], output grants = [ 9 -> 3  10 -> 7  11 -> 0  15 -> 1  ].
9 | network_0/router_level2_3 | Assigning output 15.0 to VC 0 at input 1.0.
9 | network_0/router_level2_3 | Completed switch allocation for VC 0 at input 1 (front: 5).
9 | network_0/router_level2_3 |   Scheduling switch connection from input 1.0 to output 15.0.
9 | network_0/router_level2_3 | Updating lookahead routing information for flit 5.
9 | network_0/router_level2_4 | Beginning switch allocation for VC 0 at input 3 (front: 10).
9 | network_0/router_level2_4 |   Requesting output 14.0 (non-spec, pri: 0).
9 | network_0/router_level2_4 | Beginning switch allocation for VC 1 at input 1 (front: 4).
9 | network_0/router_level2_4 |   Requesting output 15.0 (non-spec, pri: 0).
9 | network_0/router_level2_4/sw_allocator | Input requests = [ 1 -> [ 15@0 ]  3 -> [ 14@0 ]  4 -> [ 13@0 ]  5 -> [ 13@0 ]  ], output requests = [ 13 -> [ 4@0 5@0 ]  14 -> [ 3@0 ]  15 -> [ 1@0 ]  ].
9 | network_0/router_level2_4/sw_allocator | Input grants = [ 1 -> 15  3 -> 14  4 -> 13  ], output grants = [ 13 -> 4  14 -> 3  15 -> 1  ].
9 | network_0/router_level2_4 | Assigning output 14.0 to VC 0 at input 3.0.
9 | network_0/router_level2_4 | Assigning output 15.0 to VC 1 at input 1.0.
9 | network_0/router_level2_4 | Completed switch allocation for VC 0 at input 3 (front: 10).
9 | network_0/router_level2_4 |   Scheduling switch connection from input 3.0 to output 14.0.
9 | network_0/router_level2_4 | Updating lookahead routing information for flit 10.
9 | network_0/router_level2_4 | Completed switch allocation for VC 1 at input 1 (front: 4).
9 | network_0/router_level2_4 |   Scheduling switch connection from input 1.0 to output 15.0.
9 | network_0/router_level2_4 | Updating lookahead routing information for flit 4.
9 | network_0/network_0_fchan_12295 | Completed channel traversal for flit 6.
9 | network_0/network_0_fchan_12299 | Completed channel traversal for flit 1.
9 | network_0/network_0_fchan_12301 | Completed channel traversal for flit 7.
9 | network_0/network_0_fchan_12303 | Completed channel traversal for flit 9.
9 | network_0/network_0_fchan_12318 | Completed channel traversal for flit 3.
9 | network_0/network_0_fchan_12320 | Completed channel traversal for flit 8.
9 | network_0/network_0_fchan_12331 | Completed channel traversal for flit 2.
10 | network_0/router_level1_4 | Received flit 8 from channel at input 0.
10 | network_0/router_level1_25 | Received flit 1 from channel at input 0.
10 | network_0/router_level1_29 | Received flit 2 from channel at input 0.
10 | network_0/router_level1_41 | Received flit 7 from channel at input 0.
10 | network_0/router_level1_51 | Received flit 3 from channel at input 0.
10 | network_0/router_level1_56 | Received flit 6 from channel at input 0.
10 | network_0/router_level1_57 | Received flit 9 from channel at input 0.
10 | network_0/router_level1_4 | Adding flit 8 to VC 0 at input 0 (state: idle, empty).
10 | network_0/router_level1_4 | Using precomputed lookahead routing information for VC 0 at input 0 (front: 8).
10 | network_0/router_level1_4/buf_0/vc_0 | Changing state from idle to vc_alloc.
10 | network_0/router_level1_4 | Beginning VC allocation for VC 0 at input 0 (front: 8).
10 | network_0/router_level1_4 |   Requesting VC 0 at output 11 (in_pri: 0, out_pri: 0).
10 | network_0/router_level1_4 |   Requesting VC 1 at output 11 (in_pri: 0, out_pri: 0).
10 | network_0/router_level1_4 |   Requesting VC 2 at output 11 (in_pri: 0, out_pri: 0).
10 | network_0/router_level1_4 |   Requesting VC 3 at output 11 (in_pri: 0, out_pri: 0).
10 | network_0/router_level1_4/vc_allocator | Input requests = [ 0 -> [ 44@0 45@0 46@0 47@0 ]  8 -> [ 44@0 45@0 46@0 47@0 ]  16 -> [ 40@0 41@0 42@0 43@0 ]  20 -> [ 36@0 37@0 38@0 39@0 ]  24 -> [ 36@0 37@0 38@0 39@0 ]  ], output requests = [ 36 -> [ 20@0 24@0 ]  37 -> [ 20@0 24@0 ]  38 -> [ 20@0 24@0 ]  39 -> [ 20@0 24@0 ]  40 -> [ 16@0 ]  41 -> [ 16@0 ]  42 -> [ 16@0 ]  43 -> [ 16@0 ]  44 -> [ 0@0 8@0 ]  45 -> [ 0@0 8@0 ]  46 -> [ 0@0 8@0 ]  47 -> [ 0@0 8@0 ]  ].
10 | network_0/router_level1_4/vc_allocator | Input grants = [ 0 -> 44  16 -> 40  20 -> 36  ], output grants = [ 36 -> 20  40 -> 16  44 -> 0  ].
10 | network_0/router_level1_4 | Assigning VC 0 at output 11 to VC 0 at input 0.
10 | network_0/router_level1_4 | Completed VC allocation for VC 0 at input 0 (front: 8).
10 | network_0/router_level1_4 |   Acquiring assigned VC 0 at output 11.
10 | network_0/router_level1_4/buf_0/vc_0 | Changing state from vc_alloc to active.
10 | network_0/router_level1_25 | Adding flit 1 to VC 0 at input 0 (state: idle, empty).
10 | network_0/router_level1_25 | Using precomputed lookahead routing information for VC 0 at input 0 (front: 1).
10 | network_0/router_level1_25/buf_0/vc_0 | Changing state from idle to vc_alloc.
10 | network_0/router_level1_25 | Beginning VC allocation for VC 0 at input 0 (front: 1).
10 | network_0/router_level1_25 |   Requesting VC 0 at output 11 (in_pri: 0, out_pri: 0).
10 | network_0/router_level1_25 |   Requesting VC 1 at output 11 (in_pri: 0, out_pri: 0).
10 | network_0/router_level1_25 |   Requesting VC 2 at output 11 (in_pri: 0, out_pri: 0).
10 | network_0/router_level1_25 |   Requesting VC 3 at output 11 (in_pri: 0, out_pri: 0).
10 | network_0/router_level1_25/vc_allocator | Input requests = [ 0 -> [ 44@0 45@0 46@0 47@0 ]  4 -> [ 44@0 45@0 46@0 47@0 ]  24 -> [ 32@0 33@0 34@0 35@0 ]  ], output requests = [ 32 -> [ 24@0 ]  33 -> [ 24@0 ]  34 -> [ 24@0 ]  35 -> [ 24@0 ]  44 -> [ 0@0 4@0 ]  45 -> [ 0@0 4@0 ]  46 -> [ 0@0 4@0 ]  47 -> [ 0@0 4@0 ]  ].
10 | network_0/router_level1_25/vc_allocator | Input grants = [ 0 -> 44  24 -> 32  ], output grants = [ 32 -> 24  44 -> 0  ].
10 | network_0/router_level1_25 | Assigning VC 0 at output 11 to VC 0 at input 0.
10 | network_0/router_level1_25 | Completed VC allocation for VC 0 at input 0 (front: 1).
10 | network_0/router_level1_25 |   Acquiring assigned VC 0 at output 11.
10 | network_0/router_level1_25/buf_0/vc_0 | Changing state from vc_alloc to active.
10 | network_0/router_level1_29 | Adding flit 2 to VC 0 at input 0 (state: idle, empty).
10 | network_0/router_level1_29 | Using precomputed lookahead routing information for VC 0 at input 0 (front: 2).
10 | network_0/router_level1_29/buf_0/vc_0 | Changing state from idle to vc_alloc.
10 | network_0/router_level1_29 | Beginning VC allocation for VC 0 at input 0 (front: 2).
10 | network_0/router_level1_29 |   Requesting VC 0 at output 10 (in_pri: 0, out_pri: 0).
10 | network_0/router_level1_29 |   Requesting VC 1 at output 10 (in_pri: 0, out_pri: 0).
10 | network_0/router_level1_29 |   Requesting VC 2 at output 10 (in_pri: 0, out_pri: 0).
10 | network_0/router_level1_29 |   Requesting VC 3 at output 10 (in_pri: 0, out_pri: 0).
10 | network_0/router_level1_29/vc_allocator | Input requests = [ 0 -> [ 40@0 41@0 42@0 43@0 ]  8 -> [ 36@0 37@0 38@0 39@0 ]  12 -> [ 40@0 41@0 42@0 43@0 ]  16 -> [ 32@0 33@0 34@0 35@0 ]  20 -> [ 44@0 45@0 46@0 47@0 ]  24 -> [ 40@0 41@0 42@0 43@0 ]  ], output requests = [ 32 -> [ 16@0 ]  33 -> [ 16@0 ]  34 -> [ 16@0 ]  35 -> [ 16@0 ]  36 -> [ 8@0 ]  37 -> [ 8@0 ]  38 -> [ 8@0 ]  39 -> [ 8@0 ]  40 -> [ 0@0 12@0 24@0 ]  41 -> [ 0@0 12@0 24@0 ]  42 -> [ 0@0 12@0 24@0 ]  43 -> [ 0@0 12@0 24@0 ]  44 -> [ 20@0 ]  45 -> [ 20@0 ]  46 -> [ 20@0 ]  47 -> [ 20@0 ]  ].
10 | network_0/router_level1_29/vc_allocator | Input grants = [ 0 -> 40  8 -> 36  16 -> 32  20 -> 44  ], output grants = [ 32 -> 16  36 -> 8  40 -> 0  44 -> 20  ].
10 | network_0/router_level1_29 | Assigning VC 0 at output 10 to VC 0 at input 0.
10 | network_0/router_level1_29 | Completed VC allocation for VC 0 at input 0 (front: 2).
10 | network_0/router_level1_29 |   Acquiring assigned VC 0 at output 10.
10 | network_0/router_level1_29/buf_0/vc_0 | Changing state from vc_alloc to active.
10 | network_0/router_level1_41 | Adding flit 7 to VC 0 at input 0 (state: idle, empty).
10 | network_0/router_level1_41 | Using precomputed lookahead routing information for VC 0 at input 0 (front: 7).
10 | network_0/router_level1_41/buf_0/vc_0 | Changing state from idle to vc_alloc.
10 | network_0/router_level1_41 | Beginning VC allocation for VC 0 at input 0 (front: 7).
10 | network_0/router_level1_41 |   Requesting VC 0 at output 9 (in_pri: 0, out_pri: 0).
10 | network_0/router_level1_41 |   Requesting VC 1 at output 9 (in_pri: 0, out_pri: 0).
10 | network_0/router_level1_41 |   Requesting VC 2 at output 9 (in_pri: 0, out_pri: 0).
10 | network_0/router_level1_41 |   Requesting VC 3 at output 9 (in_pri: 0, out_pri: 0).
10 | network_0/router_level1_41/vc_allocator | Input requests = [ 0 -> [ 36@0 37@0 38@0 39@0 ]  24 -> [ 44@0 45@0 46@0 47@0 ]  28 -> [ 36@0 37@0 38@0 39@0 ]  ], output requests = [ 36 -> [ 0@0 28@0 ]  37 -> [ 0@0 28@0 ]  38 -> [ 0@0 28@0 ]  39 -> [ 0@0 28@0 ]  44 -> [ 24@0 ]  45 -> [ 24@0 ]  46 -> [ 24@0 ]  47 -> [ 24@0 ]  ].
10 | network_0/router_level1_41/vc_allocator | Input grants = [ 0 -> 36  24 -> 44  ], output grants = [ 36 -> 0  44 -> 24  ].
10 | network_0/router_level1_41 | Assigning VC 0 at output 9 to VC 0 at input 0.
10 | network_0/router_level1_41 | Completed VC allocation for VC 0 at input 0 (front: 7).
10 | network_0/router_level1_41 |   Acquiring assigned VC 0 at output 9.
10 | network_0/router_level1_41/buf_0/vc_0 | Changing state from vc_alloc to active.
10 | network_0/router_level1_51 | Adding flit 3 to VC 0 at input 0 (state: idle, empty).
10 | network_0/router_level1_51 | Using precomputed lookahead routing information for VC 0 at input 0 (front: 3).
10 | network_0/router_level1_51/buf_0/vc_0 | Changing state from idle to vc_alloc.
10 | network_0/router_level1_51 | Beginning VC allocation for VC 0 at input 0 (front: 3).
10 | network_0/router_level1_51 |   Requesting VC 0 at output 11 (in_pri: 0, out_pri: 0).
10 | network_0/router_level1_51 |   Requesting VC 1 at output 11 (in_pri: 0, out_pri: 0).
10 | network_0/router_level1_51 |   Requesting VC 2 at output 11 (in_pri: 0, out_pri: 0).
10 | network_0/router_level1_51 |   Requesting VC 3 at output 11 (in_pri: 0, out_pri: 0).
10 | network_0/router_level1_51/vc_allocator | Input requests = [ 0 -> [ 44@0 45@0 46@0 47@0 ]  12 -> [ 40@0 41@0 42@0 43@0 ]  ], output requests = [ 40 -> [ 12@0 ]  41 -> [ 12@0 ]  42 -> [ 12@0 ]  43 -> [ 12@0 ]  44 -> [ 0@0 ]  45 -> [ 0@0 ]  46 -> [ 0@0 ]  47 -> [ 0@0 ]  ].
10 | network_0/router_level1_51/vc_allocator | Input grants = [ 0 -> 44  12 -> 40  ], output grants = [ 40 -> 12  44 -> 0  ].
10 | network_0/router_level1_51 | Assigning VC 0 at output 11 to VC 0 at input 0.
10 | network_0/router_level1_51 | Completed VC allocation for VC 0 at input 0 (front: 3).
10 | network_0/router_level1_51 |   Acquiring assigned VC 0 at output 11.
10 | network_0/router_level1_51/buf_0/vc_0 | Changing state from vc_alloc to active.
10 | network_0/router_level1_56 | Adding flit 6 to VC 0 at input 0 (state: idle, empty).
10 | network_0/router_level1_56 | Using precomputed lookahead routing information for VC 0 at input 0 (front: 6).
10 | network_0/router_level1_56/buf_0/vc_0 | Changing state from idle to vc_alloc.
10 | network_0/router_level1_56 | Beginning VC allocation for VC 0 at input 0 (front: 6).
10 | network_0/router_level1_56 |   Requesting VC 0 at output 9 (in_pri: 0, out_pri: 0).
10 | network_0/router_level1_56 |   Requesting VC 1 at output 9 (in_pri: 0, out_pri: 0).
10 | network_0/router_level1_56 |   Requesting VC 2 at output 9 (in_pri: 0, out_pri: 0).
10 | network_0/router_level1_56 |   Requesting VC 3 at output 9 (in_pri: 0, out_pri: 0).
10 | network_0/router_level1_56/vc_allocator | Input requests = [ 0 -> [ 36@0 37@0 38@0 39@0 ]  4 -> [ 36@0 37@0 38@0 39@0 ]  12 -> [ 44@0 45@0 46@0 47@0 ]  28 -> [ 32@0 33@0 34@0 35@0 ]  ], output requests = [ 32 -> [ 28@0 ]  33 -> [ 28@0 ]  34 -> [ 28@0 ]  35 -> [ 28@0 ]  36 -> [ 0@0 4@0 ]  37 -> [ 0@0 4@0 ]  38 -> [ 0@0 4@0 ]  39 -> [ 0@0 4@0 ]  44 -> [ 12@0 ]  45 -> [ 12@0 ]  46 -> [ 12@0 ]  47 -> [ 12@0 ]  ].
10 | network_0/router_level1_56/vc_allocator | Input grants = [ 0 -> 36  12 -> 44  28 -> 32  ], output grants = [ 32 -> 28  36 -> 0  44 -> 12  ].
10 | network_0/router_level1_56 | Assigning VC 0 at output 9 to VC 0 at input 0.
10 | network_0/router_level1_56 | Completed VC allocation for VC 0 at input 0 (front: 6).
10 | network_0/router_level1_56 |   Acquiring assigned VC 0 at output 9.
10 | network_0/router_level1_56/buf_0/vc_0 | Changing state from vc_alloc to active.
10 | network_0/router_level1_57 | Adding flit 9 to VC 0 at input 0 (state: idle, empty).
10 | network_0/router_level1_57 | Using precomputed lookahead routing information for VC 0 at input 0 (front: 9).
10 | network_0/router_level1_57/buf_0/vc_0 | Changing state from idle to vc_alloc.
10 | network_0/router_level1_57 | Beginning VC allocation for VC 0 at input 0 (front: 9).
10 | network_0/router_level1_57 |   Requesting VC 0 at output 11 (in_pri: 0, out_pri: 0).
10 | network_0/router_level1_57 |   Requesting VC 1 at output 11 (in_pri: 0, out_pri: 0).
10 | network_0/router_level1_57 |   Requesting VC 2 at output 11 (in_pri: 0, out_pri: 0).
10 | network_0/router_level1_57 |   Requesting VC 3 at output 11 (in_pri: 0, out_pri: 0).
10 | network_0/router_level1_57/vc_allocator | Input requests = [ 0 -> [ 44@0 45@0 46@0 47@0 ]  28 -> [ 32@0 33@0 34@0 35@0 ]  ], output requests = [ 32 -> [ 28@0 ]  33 -> [ 28@0 ]  34 -> [ 28@0 ]  35 -> [ 28@0 ]  44 -> [ 0@0 ]  45 -> [ 0@0 ]  46 -> [ 0@0 ]  47 -> [ 0@0 ]  ].
10 | network_0/router_level1_57/vc_allocator | Input grants = [ 0 -> 44  28 -> 32  ], output grants = [ 32 -> 28  44 -> 0  ].
10 | network_0/router_level1_57 | Assigning VC 0 at output 11 to VC 0 at input 0.
10 | network_0/router_level1_57 | Completed VC allocation for VC 0 at input 0 (front: 9).
10 | network_0/router_level1_57 |   Acquiring assigned VC 0 at output 11.
10 | network_0/router_level1_57/buf_0/vc_0 | Changing state from vc_alloc to active.
10 | network_0/router_level2_3 | Beginning crossbar traversal for flit 5 from input 1.0 to output 15.0.
10 | network_0/router_level2_3 | Completed crossbar traversal for flit 5 from input 1.0 to output 15.0.
10 | network_0/router_level2_3 | Buffering flit 5 at output 15.
10 | network_0/router_level2_4 | Beginning crossbar traversal for flit 10 from input 3.0 to output 14.0.
10 | network_0/router_level2_4 | Beginning crossbar traversal for flit 4 from input 1.0 to output 15.0.
10 | network_0/router_level2_4 | Completed crossbar traversal for flit 10 from input 3.0 to output 14.0.
10 | network_0/router_level2_4 | Buffering flit 10 at output 14.
10 | network_0/router_level2_4 | Completed crossbar traversal for flit 4 from input 1.0 to output 15.0.
10 | network_0/router_level2_4 | Buffering flit 4 at output 15.
10 | network_0/router_level2_3 | Sending flit 5 to channel at output 15.
10 | network_0/router_level2_4 | Sending flit 10 to channel at output 14.
10 | network_0/router_level2_4 | Sending flit 4 to channel at output 15.
11 | network_0/network_0_fchan_12319 | Beginning channel traversal for flit 5 with delay 1.
11 | network_0/network_0_fchan_12326 | Beginning channel traversal for flit 10 with delay 1.
11 | network_0/network_0_fchan_12327 | Beginning channel traversal for flit 4 with delay 1.
11 | network_0/router_level1_4 | Beginning switch allocation for VC 0 at input 0 (front: 8).
11 | network_0/router_level1_4 |   Requesting output 11.0 (non-spec, pri: 0).
11 | network_0/router_level1_4/sw_allocator | Input requests = [ 0 -> [ 11@0 ]  4 -> [ 10@0 ]  5 -> [ 9@0 ]  ], output requests = [ 9 -> [ 5@0 ]  10 -> [ 4@0 ]  11 -> [ 0@0 ]  ].
11 | network_0/router_level1_4/sw_allocator | Input grants = [ 0 -> 11  4 -> 10  5 -> 9  ], output grants = [ 9 -> 5  10 -> 4  11 -> 0  ].
11 | network_0/router_level1_4 | Assigning output 11.0 to VC 0 at input 0.0.
11 | network_0/router_level1_4 | Completed switch allocation for VC 0 at input 0 (front: 8).
11 | network_0/router_level1_4 |   Scheduling switch connection from input 0.0 to output 11.0.
11 | network_0/router_level1_4 | Updating lookahead routing information for flit 8.
11 | network_0/router_level1_25 | Beginning switch allocation for VC 0 at input 0 (front: 1).
11 | network_0/router_level1_25 |   Requesting output 11.0 (non-spec, pri: 0).
11 | network_0/router_level1_25/sw_allocator | Input requests = [ 0 -> [ 11@0 ]  6 -> [ 8@0 ]  ], output requests = [ 8 -> [ 6@0 ]  11 -> [ 0@0 ]  ].
11 | network_0/router_level1_25/sw_allocator | Input grants = [ 0 -> 11  6 -> 8  ], output grants = [ 8 -> 6  11 -> 0  ].
11 | network_0/router_level1_25 | Assigning output 11.0 to VC 0 at input 0.0.
11 | network_0/router_level1_25 | Completed switch allocation for VC 0 at input 0 (front: 1).
11 | network_0/router_level1_25 |   Scheduling switch connection from input 0.0 to output 11.0.
11 | network_0/router_level1_25 | Updating lookahead routing information for flit 1.
11 | network_0/router_level1_29 | Beginning switch allocation for VC 0 at input 0 (front: 2).
11 | network_0/router_level1_29 |   Requesting output 10.0 (non-spec, pri: 0).
11 | network_0/router_level1_29/sw_allocator | Input requests = [ 0 -> [ 10@0 ]  2 -> [ 9@0 ]  4 -> [ 8@0 ]  5 -> [ 11@0 ]  ], output requests = [ 8 -> [ 4@0 ]  9 -> [ 2@0 ]  10 -> [ 0@0 ]  11 -> [ 5@0 ]  ].
11 | network_0/router_level1_29/sw_allocator | Input grants = [ 0 -> 10  2 -> 9  4 -> 8  5 -> 11  ], output grants = [ 8 -> 4  9 -> 2  10 -> 0  11 -> 5  ].
11 | network_0/router_level1_29 | Assigning output 10.0 to VC 0 at input 0.0.
11 | network_0/router_level1_29 | Completed switch allocation for VC 0 at input 0 (front: 2).
11 | network_0/router_level1_29 |   Scheduling switch connection from input 0.0 to output 10.0.
11 | network_0/router_level1_29 | Updating lookahead routing information for flit 2.
11 | network_0/router_level1_41 | Beginning switch allocation for VC 0 at input 0 (front: 7).
11 | network_0/router_level1_41 |   Requesting output 9.0 (non-spec, pri: 0).
11 | network_0/router_level1_41/sw_allocator | Input requests = [ 0 -> [ 9@0 ]  6 -> [ 11@0 ]  ], output requests = [ 9 -> [ 0@0 ]  11 -> [ 6@0 ]  ].
11 | network_0/router_level1_41/sw_allocator | Input grants = [ 0 -> 9  6 -> 11  ], output grants = [ 9 -> 0  11 -> 6  ].
11 | network_0/router_level1_41 | Assigning output 9.0 to VC 0 at input 0.0.
11 | network_0/router_level1_41 | Completed switch allocation for VC 0 at input 0 (front: 7).
11 | network_0/router_level1_41 |   Scheduling switch connection from input 0.0 to output 9.0.
11 | network_0/router_level1_41 | Updating lookahead routing information for flit 7.
11 | network_0/router_level1_51 | Beginning switch allocation for VC 0 at input 0 (front: 3).
11 | network_0/router_level1_51 |   Requesting output 11.0 (non-spec, pri: 0).
11 | network_0/router_level1_51/sw_allocator | Input requests = [ 0 -> [ 11@0 ]  3 -> [ 10@0 ]  ], output requests = [ 10 -> [ 3@0 ]  11 -> [ 0@0 ]  ].
11 | network_0/router_level1_51/sw_allocator | Input grants = [ 0 -> 11  3 -> 10  ], output grants = [ 10 -> 3  11 -> 0  ].
11 | network_0/router_level1_51 | Assigning output 11.0 to VC 0 at input 0.0.
11 | network_0/router_level1_51 | Completed switch allocation for VC 0 at input 0 (front: 3).
[...]
29 | network_0/router_level3_510 |   Requesting output 0.0 (non-spec, pri: 0).
29 | network_0/router_level3_510/sw_allocator | Input requests = [ 0 -> [ 8@0 ]  5 -> [ 15@0 ]  6 -> [ 13@0 ]  11 -> [ 0@0 ]  14 -> [ 6@0 ]  15 -> [ 2@0 ]  ], output requests = [ 0 -> [ 11@0 ]  2 -> [ 15@0 ]  6 -> [ 14@0 ]  8 -> [ 0@0 ]  13 -> [ 6@0 ]  15 -> [ 5@0 ]  ].
29 | network_0/router_level3_510/sw_allocator | Input grants = [ 0 -> 8  5 -> 15  6 -> 13  11 -> 0  14 -> 6  15 -> 2  ], output grants = [ 0 -> 11  2 -> 15  6 -> 14  8 -> 0  13 -> 6  15 -> 5  ].
29 | network_0/router_level3_510 | Assigning output 0.0 to VC 0 at input 11.0.
29 | network_0/router_level3_510 | Completed switch allocation for VC 0 at input 11 (front: 5).
29 | network_0/router_level3_510 |   Scheduling switch connection from input 11.0 to output 0.0.
29 | network_0/network_0_fchan_egress4065 | Completed channel traversal for flit 9.
29 | network_0/network_0_fchan_egress4075 | Completed channel traversal for flit 8.
29 | network_0/network_0_fchan_egress4076 | Completed channel traversal for flit 7.
29 | network_0/network_0_fchan_egress4077 | Completed channel traversal for flit 6.
29 | network_0/network_0_fchan_egress4082 | Completed channel traversal for flit 3.
29 | network_0/network_0_fchan_egress4083 | Completed channel traversal for flit 2.
29 | network_0/network_0_fchan_egress4084 | Completed channel traversal for flit 1.
29 | network_0/network_0_fchan_20452 | Completed channel traversal for flit 10.
29 | network_0/network_0_fchan_20454 | Completed channel traversal for flit 4.
30 | node4065 | Ejecting flit 9 (packet 9) from VC 0.
30 | node4075 | Ejecting flit 8 (packet 8) from VC 0.
30 | node4076 | Ejecting flit 7 (packet 7) from VC 0.
30 | node4077 | Ejecting flit 6 (packet 6) from VC 0.
30 | node4082 | Ejecting flit 3 (packet 3) from VC 0.
30 | node4083 | Ejecting flit 2 (packet 2) from VC 0.
30 | node4084 | Ejecting flit 1 (packet 1) from VC 0.
30 | network_0/router_level3_508 | Received flit 10 from channel at input 12.
30 | network_0/router_level3_510 | Received flit 4 from channel at input 12.
30 | node4065 | Injecting credit for VC 0 into subnet 0.
30 | node4065 | Retiring flit 9 (packet 9, src = 30, dest = 4065, hops = 7, flat = 30).
30 | node4065 | Retiring packet 9 (plat = 30, nlat = 30, frag = 0, src = 30, dest = 4065).
30 | node4075 | Injecting credit for VC 0 into subnet 0.
30 | node4075 | Retiring flit 8 (packet 8, src = 20, dest = 4075, hops = 7, flat = 30).
30 | node4075 | Retiring packet 8 (plat = 30, nlat = 30, frag = 0, src = 20, dest = 4075).
30 | node4076 | Injecting credit for VC 0 into subnet 0.
30 | node4076 | Retiring flit 7 (packet 7, src = 19, dest = 4076, hops = 7, flat = 30).
30 | node4076 | Retiring packet 7 (plat = 30, nlat = 30, frag = 0, src = 19, dest = 4076).
30 | node4077 | Injecting credit for VC 0 into subnet 0.
30 | node4077 | Retiring flit 6 (packet 6, src = 18, dest = 4077, hops = 7, flat = 30).
30 | node4077 | Retiring packet 6 (plat = 30, nlat = 30, frag = 0, src = 18, dest = 4077).
30 | node4082 | Injecting credit for VC 0 into subnet 0.
30 | node4082 | Retiring flit 3 (packet 3, src = 13, dest = 4082, hops = 7, flat = 30).
30 | node4082 | Retiring packet 3 (plat = 30, nlat = 30, frag = 0, src = 13, dest = 4082).
30 | node4083 | Injecting credit for VC 0 into subnet 0.
30 | node4083 | Retiring flit 2 (packet 2, src = 12, dest = 4083, hops = 7, flat = 30).
30 | node4083 | Retiring packet 2 (plat = 30, nlat = 30, frag = 0, src = 12, dest = 4083).
30 | node4084 | Injecting credit for VC 0 into subnet 0.
30 | node4084 | Retiring flit 1 (packet 1, src = 11, dest = 4084, hops = 7, flat = 30).
30 | node4084 | Retiring packet 1 (plat = 30, nlat = 30, frag = 0, src = 11, dest = 4084).
30 | network_0/router_level3_508 | Adding flit 10 to VC 0 at input 12 (state: idle, empty).
30 | network_0/router_level3_508 | Using precomputed lookahead routing information for VC 0 at input 12 (front: 10).
30 | network_0/router_level3_508/buf_12/vc_0 | Changing state from idle to vc_alloc.
30 | network_0/router_level3_508 | Beginning VC allocation for VC 0 at input 12 (front: 10).
30 | network_0/router_level3_508 |   Requesting VC 0 at output 0 (in_pri: 0, out_pri: 0).
30 | network_0/router_level3_508 |   Requesting VC 1 at output 0 (in_pri: 0, out_pri: 0).
30 | network_0/router_level3_508 |   Requesting VC 2 at output 0 (in_pri: 0, out_pri: 0).
30 | network_0/router_level3_508 |   Requesting VC 3 at output 0 (in_pri: 0, out_pri: 0).
30 | network_0/router_level3_508/vc_allocator | Input requests = [ 0 -> [ 48@0 49@0 50@0 51@0 ]  8 -> [ 48@0 49@0 50@0 51@0 ]  12 -> [ 60@0 61@0 62@0 63@0 ]  21 -> [ 36@0 38@0 39@0 ]  33 -> [ 0@0 1@0 2@0 3@0 ]  36 -> [ 12@0 13@0 14@0 15@0 ]  48 -> [ 0@0 1@0 2@0 3@0 ]  56 -> [ 21@0 22@0 23@0 ]  61 -> [ 28@0 29@0 30@0 31@0 ]  ], output requests = [ 0 -> [ 33@0 48@0 ]  1 -> [ 33@0 48@0 ]  2 -> [ 33@0 48@0 ]  3 -> [ 33@0 48@0 ]  12 -> [ 36@0 ]  13 -> [ 36@0 ]  14 -> [ 36@0 ]  15 -> [ 36@0 ]  21 -> [ 56@0 ]  22 -> [ 56@0 ]  23 -> [ 56@0 ]  28 -> [ 61@0 ]  29 -> [ 61@0 ]  30 -> [ 61@0 ]  31 -> [ 61@0 ]  36 -> [ 21@0 ]  38 -> [ 21@0 ]  39 -> [ 21@0 ]  48 -> [ 0@0 8@0 ]  49 -> [ 0@0 8@0 ]  50 -> [ 0@0 8@0 ]  51 -> [ 0@0 8@0 ]  60 -> [ 12@0 ]  61 -> [ 12@0 ]  62 -> [ 12@0 ]  63 -> [ 12@0 ]  ].
30 | network_0/router_level3_508/vc_allocator | Input grants = [ 8 -> 48  12 -> 60  21 -> 36  33 -> 0  36 -> 12  56 -> 21  61 -> 28  ], output grants = [ 0 -> 33  12 -> 36  21 -> 56  28 -> 61  36 -> 21  48 -> 8  60 -> 12  ].
30 | network_0/router_level3_508 | VC allocation failed for VC 0 at input 12.
30 | network_0/router_level3_508 | Completed VC allocation for VC 0 at input 12 (front: 10).
30 | network_0/router_level3_508 |   No output VC allocated.
30 | network_0/router_level3_510 | Adding flit 4 to VC 0 at input 12 (state: idle, empty).
30 | network_0/router_level3_510 | Using precomputed lookahead routing information for VC 0 at input 12 (front: 4).
30 | network_0/router_level3_510/buf_12/vc_0 | Changing state from idle to vc_alloc.
30 | network_0/router_level3_510 | Beginning VC allocation for VC 0 at input 12 (front: 4).
30 | network_0/router_level3_510 |   Requesting VC 0 at output 1 (in_pri: 0, out_pri: 0).
30 | network_0/router_level3_510 |   Requesting VC 1 at output 1 (in_pri: 0, out_pri: 0).
30 | network_0/router_level3_510 |   Requesting VC 2 at output 1 (in_pri: 0, out_pri: 0).
30 | network_0/router_level3_510 |   Requesting VC 3 at output 1 (in_pri: 0, out_pri: 0).
30 | network_0/router_level3_510/vc_allocator | Input requests = [ 2 -> [ 45@0 46@0 47@0 ]  5 -> [ 45@0 46@0 47@0 ]  14 -> [ 32@0 33@0 34@0 35@0 ]  22 -> [ 32@0 33@0 34@0 35@0 ]  25 -> [ 32@0 33@0 34@0 35@0 ]  45 -> [ 4@0 5@0 6@0 7@0 ]  48 -> [ 4@0 5@0 6@0 7@0 ]  ], output requests = [ 4 -> [ 45@0 48@0 ]  5 -> [ 45@0 48@0 ]  6 -> [ 45@0 48@0 ]  7 -> [ 45@0 48@0 ]  32 -> [ 14@0 22@0 25@0 ]  33 -> [ 14@0 22@0 25@0 ]  34 -> [ 14@0 22@0 25@0 ]  35 -> [ 14@0 22@0 25@0 ]  45 -> [ 2@0 5@0 ]  46 -> [ 2@0 5@0 ]  47 -> [ 2@0 5@0 ]  ].
30 | network_0/router_level3_510/vc_allocator | Input grants = [ 2 -> 45  14 -> 32  45 -> 5  48 -> 4  ], output grants = [ 4 -> 48  5 -> 45  32 -> 14  45 -> 2  ].
30 | network_0/router_level3_510 | Assigning VC 0 at output 1 to VC 0 at input 12.
30 | network_0/router_level3_510 | Beginning crossbar traversal for flit 5 from input 11.0 to output 0.0.
30 | network_0/router_level3_510 | Completed VC allocation for VC 0 at input 12 (front: 4).
30 | network_0/router_level3_510 |   Acquiring assigned VC 0 at output 1.
30 | network_0/router_level3_510/buf_12/vc_0 | Changing state from vc_alloc to active.
30 | network_0/router_level3_510 | Completed crossbar traversal for flit 5 from input 11.0 to output 0.0.
30 | network_0/router_level3_510 | Buffering flit 5 at output 0.
30 | network_0/router_level3_510 | Sending flit 5 to channel at output 0.
31 | network_0/network_0_fchan_egress4080 | Beginning channel traversal for flit 5 with delay 1.
31 | network_0/router_level3_508 | Beginning VC allocation for VC 0 at input 12 (front: 10).
31 | network_0/router_level3_508 |   VC 0 at output 0 is in use by VC 1 at input 8 (front flit: 3241).
31 | network_0/router_level3_508 |   Requesting VC 1 at output 0 (in_pri: 0, out_pri: 0).
31 | network_0/router_level3_508 |   Requesting VC 2 at output 0 (in_pri: 0, out_pri: 0).
31 | network_0/router_level3_508 |   Requesting VC 3 at output 0 (in_pri: 0, out_pri: 0).
31 | network_0/router_level3_508/vc_allocator | Input requests = [ 0 -> [ 49@0 50@0 51@0 ]  1 -> [ 61@0 62@0 63@0 ]  9 -> [ 61@0 62@0 63@0 ]  13 -> [ 44@0 45@0 46@0 47@0 ]  17 -> [ 37@0 38@0 39@0 ]  24 -> [ 44@0 45@0 46@0 47@0 ]  48 -> [ 1@0 2@0 3@0 ]  49 -> [ 13@0 14@0 15@0 ]  57 -> [ 16@0 17@0 18@0 19@0 ]  ], output requests = [ 1 -> [ 48@0 ]  2 -> [ 48@0 ]  3 -> [ 48@0 ]  13 -> [ 49@0 ]  14 -> [ 49@0 ]  15 -> [ 49@0 ]  16 -> [ 57@0 ]  17 -> [ 57@0 ]  18 -> [ 57@0 ]  19 -> [ 57@0 ]  37 -> [ 17@0 ]  38 -> [ 17@0 ]  39 -> [ 17@0 ]  44 -> [ 13@0 24@0 ]  45 -> [ 13@0 24@0 ]  46 -> [ 13@0 24@0 ]  47 -> [ 13@0 24@0 ]  49 -> [ 0@0 ]  50 -> [ 0@0 ]  51 -> [ 0@0 ]  61 -> [ 1@0 9@0 ]  62 -> [ 1@0 9@0 ]  63 -> [ 1@0 9@0 ]  ].
31 | network_0/router_level3_508/vc_allocator | Input grants = [ 0 -> 49  1 -> 61  9 -> 62  13 -> 44  17 -> 37  48 -> 1  49 -> 13  57 -> 16  ], output grants = [ 1 -> 48  13 -> 49  16 -> 57  37 -> 17  44 -> 13  49 -> 0  61 -> 1  62 -> 9  ].
31 | network_0/router_level3_508 | Assigning VC 1 at output 0 to VC 0 at input 12.
31 | network_0/router_level3_508 | Completed VC allocation for VC 0 at input 12 (front: 10).
31 | network_0/router_level3_508 |   Acquiring assigned VC 1 at output 0.
31 | network_0/router_level3_508/buf_12/vc_0 | Changing state from vc_alloc to active.
31 | network_0/router_level3_510 | Beginning switch allocation for VC 0 at input 12 (front: 4).
31 | network_0/router_level3_510 |   Requesting output 1.0 (non-spec, pri: 0).
31 | network_0/router_level3_510/sw_allocator | Input requests = [ 0 -> [ 11@0 ]  3 -> [ 8@0 ]  11 -> [ 1@0 ]  12 -> [ 1@0 ]  ], output requests = [ 1 -> [ 11@0 12@0 ]  8 -> [ 3@0 ]  11 -> [ 0@0 ]  ].
31 | network_0/router_level3_510/sw_allocator | Input grants = [ 0 -> 11  3 -> 8  12 -> 1  ], output grants = [ 1 -> 12  8 -> 3  11 -> 0  ].
31 | network_0/router_level3_510 | Assigning output 1.0 to VC 0 at input 12.0.
31 | network_0/router_level3_510 | Completed switch allocation for VC 0 at input 12 (front: 4).
31 | network_0/router_level3_510 |   Scheduling switch connection from input 12.0 to output 1.0.
31 | network_0/network_0_fchan_egress4080 | Completed channel traversal for flit 5.
32 | node4080 | Ejecting flit 5 (packet 5) from VC 0.
32 | node4080 | Injecting credit for VC 0 into subnet 0.
32 | node4080 | Retiring flit 5 (packet 5, src = 15, dest = 4080, hops = 7, flat = 32).
32 | node4080 | Retiring packet 5 (plat = 32, nlat = 32, frag = 0, src = 15, dest = 4080).
32 | network_0/router_level3_508 | Beginning switch allocation for VC 0 at input 12 (front: 10).
32 | network_0/router_level3_508 |   Requesting output 0.0 (non-spec, pri: 0).
32 | network_0/router_level3_508/sw_allocator | Input requests = [ 0 -> [ 12@0 15@0 ]  2 -> [ 15@0 ]  3 -> [ 11@0 ]  4 -> [ 9@0 ]  12 -> [ 0@0 3@0 ]  14 -> [ 4@0 ]  ], output requests = [ 0 -> [ 12@0 ]  3 -> [ 12@0 ]  4 -> [ 14@0 ]  9 -> [ 4@0 ]  11 -> [ 3@0 ]  12 -> [ 0@0 ]  15 -> [ 0@0 2@0 ]  ].
32 | network_0/router_level3_508/sw_allocator | Input grants = [ 0 -> 12  2 -> 15  3 -> 11  4 -> 9  12 -> 0  14 -> 4  ], output grants = [ 0 -> 12  4 -> 14  9 -> 4  11 -> 3  12 -> 0  15 -> 2  ].
32 | network_0/router_level3_508 | Assigning output 0.0 to VC 0 at input 12.0.
32 | network_0/router_level3_508 | Completed switch allocation for VC 0 at input 12 (front: 10).
32 | network_0/router_level3_508 |   Scheduling switch connection from input 12.0 to output 0.0.
32 | network_0/router_level3_510 | Beginning crossbar traversal for flit 4 from input 12.0 to output 1.0.
32 | network_0/router_level3_510 | Completed crossbar traversal for flit 4 from input 12.0 to output 1.0.
32 | network_0/router_level3_510 | Buffering flit 4 at output 1.
32 | network_0/router_level3_510 | Sending flit 4 to channel at output 1.
33 | network_0/network_0_fchan_egress4081 | Beginning channel traversal for flit 4 with delay 1.
33 | network_0/router_level3_508 | Beginning crossbar traversal for flit 10 from input 12.0 to output 0.0.
33 | network_0/router_level3_508 | Completed crossbar traversal for flit 10 from input 12.0 to output 0.0.
33 | network_0/router_level3_508 | Buffering flit 10 at output 0.
33 | network_0/network_0_fchan_egress4081 | Completed channel traversal for flit 4.
33 | network_0/router_level3_508 | Sending flit 10 to channel at output 0.
34 | node4081 | Ejecting flit 4 (packet 4) from VC 0.
34 | network_0/network_0_fchan_egress4064 | Beginning channel traversal for flit 10 with delay 1.
34 | node4081 | Injecting credit for VC 0 into subnet 0.
34 | node4081 | Retiring flit 4 (packet 4, src = 14, dest = 4081, hops = 7, flat = 34).
34 | node4081 | Retiring packet 4 (plat = 34, nlat = 34, frag = 0, src = 14, dest = 4081).
34 | network_0/network_0_fchan_egress4064 | Completed channel traversal for flit 10.
35 | node4064 | Ejecting flit 10 (packet 10) from VC 1.
35 | node4064 | Injecting credit for VC 1 into subnet 0.
35 | node4064 | Retiring flit 10 (packet 10, src = 31, dest = 4064, hops = 7, flat = 35).
35 | node4064 | Retiring packet 10 (plat = 35, nlat = 35, frag = 0, src = 31, dest = 4064).
Class 0:
Packet latency average = 43.1885
	minimum = 30
	maximum = 170
Network latency average = 43.1885
	minimum = 30
	maximum = 170
Slowest packet = 452606
Flit latency average = 43.1885
	minimum = 30
	maximum = 170
Slowest flit = 452606
Fragmentation average = 0
	minimum = 0
	maximum = 0
Injected packet rate average = 0.39965
	minimum = 0.343 (at node 3445)
	maximum = 0.453 (at node 3798)
Accepted packet rate average = 0.381021
	minimum = 0.323 (at node 650)
	maximum = 0.432 (at node 297)
Injected flit rate average = 0.39965
	minimum = 0.343 (at node 3445)
	maximum = 0.453 (at node 3798)
Accepted flit rate average= 0.381021
	minimum = 0.323 (at node 650)
	maximum = 0.432 (at node 297)
Injected packet length average = 1
Accepted packet length average = 1
Total in-flight flits = 76306 (0 measured)
latency change    = 1
throughput change = 1
Class 0:
Packet latency average = 45.1951
	minimum = 30
	maximum = 170
Network latency average = 45.1951
	minimum = 30
	maximum = 170
Slowest packet = 452606
Flit latency average = 45.1951
	minimum = 30
	maximum = 170
Slowest flit = 452606
Fragmentation average = 0
	minimum = 0
	maximum = 0
Injected packet rate average = 0.399758
	minimum = 0.357 (at node 3454)
	maximum = 0.44 (at node 790)
Accepted packet rate average = 0.390335
	minimum = 0.3455 (at node 641)
	maximum = 0.4305 (at node 3305)
Injected flit rate average = 0.399758
	minimum = 0.357 (at node 3454)
	maximum = 0.44 (at node 790)
Accepted flit rate average= 0.390335
	minimum = 0.3455 (at node 641)
	maximum = 0.4305 (at node 3305)
Injected packet length average = 1
Accepted packet length average = 1
Total in-flight flits = 77187 (0 measured)
latency change    = 0.0443984
throughput change = 0.023863
Class 0:
Packet latency average = 47.4742
	minimum = 30
	maximum = 181
Network latency average = 47.4742
	minimum = 30
	maximum = 181
Slowest packet = 4430609
Flit latency average = 47.4742
	minimum = 30
	maximum = 181
Slowest flit = 4430609
Fragmentation average = 0
	minimum = 0
	maximum = 0
Injected packet rate average = 0.399958
	minimum = 0.327 (at node 3853)
	maximum = 0.454 (at node 2471)
Accepted packet rate average = 0.399712
	minimum = 0.328 (at node 242)
	maximum = 0.458 (at node 1624)
Injected flit rate average = 0.399958
	minimum = 0.327 (at node 3853)
	maximum = 0.454 (at node 2471)
Accepted flit rate average= 0.399712
	minimum = 0.328 (at node 242)
	maximum = 0.458 (at node 1624)
Injected packet length average = 1
Accepted packet length average = 1
Total in-flight flits = 78196 (0 measured)
latency change    = 0.0480087
throughput change = 0.0234584
Warmed up ...Time used is 3000 cycles
Class 0:
Packet latency average = 47.1649
	minimum = 30
	maximum = 164
Network latency average = 47.1649
	minimum = 30
	maximum = 164
Slowest packet = 5131589
Flit latency average = 47.4951
	minimum = 30
	maximum = 175
Slowest flit = 4817326
Fragmentation average = 0
	minimum = 0
	maximum = 0
Injected packet rate average = 0.399553
	minimum = 0.338 (at node 1339)
	maximum = 0.462 (at node 1042)
Accepted packet rate average = 0.399781
	minimum = 0.339 (at node 3713)
	maximum = 0.464 (at node 2185)
Injected flit rate average = 0.399553
	minimum = 0.338 (at node 1339)
	maximum = 0.462 (at node 1042)
Accepted flit rate average= 0.399781
	minimum = 0.339 (at node 3713)
	maximum = 0.464 (at node 2185)
Injected packet length average = 1
Accepted packet length average = 1
Total in-flight flits = 77263 (77263 measured)
latency change    = 0.00655829
throughput change = 0.000173435
Class 0:
Packet latency average = 47.429
	minimum = 30
	maximum = 177
Network latency average = 47.429
	minimum = 30
	maximum = 177
Slowest packet = 7669002
Flit latency average = 47.5877
	minimum = 30
	maximum = 177
Slowest flit = 7669002
Fragmentation average = 0
	minimum = 0
	maximum = 0
Injected packet rate average = 0.399897
	minimum = 0.3575 (at node 1339)
	maximum = 0.4365 (at node 1042)
Accepted packet rate average = 0.399898
	minimum = 0.36 (at node 2756)
	maximum = 0.4385 (at node 3053)
Injected flit rate average = 0.399897
	minimum = 0.3575 (at node 1339)
	maximum = 0.4365 (at node 1042)
Accepted flit rate average= 0.399898
	minimum = 0.36 (at node 2756)
	maximum = 0.4385 (at node 3053)
Injected packet length average = 1
Accepted packet length average = 1
Total in-flight flits = 78187 (78187 measured)
latency change    = 0.00556777
throughput change = 0.000291212
Class 0:
Packet latency average = 47.5155
	minimum = 30
	maximum = 187
Network latency average = 47.5155
	minimum = 30
	maximum = 187
Slowest packet = 8449189
Flit latency average = 47.6199
	minimum = 30
	maximum = 187
Slowest flit = 8449189
Fragmentation average = 0
	minimum = 0
	maximum = 0
Injected packet rate average = 0.399993
	minimum = 0.361667 (at node 2136)
	maximum = 0.430333 (at node 2863)
Accepted packet rate average = 0.399996
	minimum = 0.364 (at node 1959)
	maximum = 0.428 (at node 3921)
Injected flit rate average = 0.399993
	minimum = 0.361667 (at node 2136)
	maximum = 0.430333 (at node 2863)
Accepted flit rate average= 0.399996
	minimum = 0.364 (at node 1959)
	maximum = 0.428 (at node 3921)
Injected packet length average = 1
Accepted packet length average = 1
Total in-flight flits = 78158 (78158 measured)
latency change    = 0.00182062
throughput change = 0.000246177
Draining all recorded packets ...
Draining remaining packets ...
Time taken is 6252 cycles
====== Overall Traffic Statistics ======
====== Traffic class 0 ======
Packet latency average = 47.6234 (1 samples)
	minimum = 30 (1 samples)
	maximum = 187 (1 samples)
Network latency average = 47.6234 (1 samples)
	minimum = 30 (1 samples)
	maximum = 187 (1 samples)
Flit latency average = 47.6868 (1 samples)
	minimum = 30 (1 samples)
	maximum = 187 (1 samples)
Fragmentation average = 0 (1 samples)
	minimum = 0 (1 samples)
	maximum = 0 (1 samples)
Injected packet rate average = 0.399993 (1 samples)
	minimum = 0.361667 (1 samples)
	maximum = 0.430333 (1 samples)
Accepted packet rate average = 0.399996 (1 samples)
	minimum = 0.364 (1 samples)
	maximum = 0.428 (1 samples)
Injected flit rate average = 0.399993 (1 samples)
	minimum = 0.361667 (1 samples)
	maximum = 0.430333 (1 samples)
Accepted flit rate average = 0.399996 (1 samples)
	minimum = 0.364 (1 samples)
	maximum = 0.428 (1 samples)
Injected packet size average = 1 (1 samples)
Accepted packet size average = 1 (1 samples)
Hops average = 7 (1 samples)
Total run time 925.432
