BEGIN Configuration File: examples/fattree_config_0.60_4_bitcomp
// $Id: dragonflyconfig 3555 2011-05-16 23:37:55Z dub $

// Copyright (c) 2007-2015, Trustees of The Leland Stanford Junior University
// All rights reserved.
//
// Redistribution and use in source and binary forms, with or without
// modification, are permitted provided that the following conditions are met:
//
// Redistributions of source code must retain the above copyright notice, this
// list of conditions and the following disclaimer.
// Redistributions in binary form must reproduce the above copyright notice,
// this list of conditions and the following disclaimer in the documentation
// and/or other materials provided with the distribution.
//
// THIS SOFTWARE IS PROVIDED BY THE COPYRIGHT HOLDERS AND CONTRIBUTORS "AS IS"
// AND ANY EXPRESS OR IMPLIED WARRANTIES, INCLUDING, BUT NOT LIMITED TO, THE
// IMPLIED WARRANTIES OF MERCHANTABILITY AND FITNESS FOR A PARTICULAR PURPOSE
// ARE DISCLAIMED. IN NO EVENT SHALL THE COPYRIGHT OWNER OR CONTRIBUTORS BE
// LIABLE FOR ANY DIRECT, INDIRECT, INCIDENTAL, SPECIAL, EXEMPLARY, OR
// CONSEQUENTIAL DAMAGES (INCLUDING, BUT NOT LIMITED TO, PROCUREMENT OF
// SUBSTITUTE GOODS OR SERVICES; LOSS OF USE, DATA, OR PROFITS; OR BUSINESS
// INTERRUPTION) HOWEVER CAUSED AND ON ANY THEORY OF LIABILITY, WHETHER IN
// CONTRACT, STRICT LIABILITY, OR TORT (INCLUDING NEGLIGENCE OR OTHERWISE)
// ARISING IN ANY WAY OUT OF THE USE OF THIS SOFTWARE, EVEN IF ADVISED OF THE
// POSSIBILITY OF SUCH DAMAGE.


hold_switch_for_packet=1;

vc_buf_size = 16;


wait_for_tail_credit = 0;

//
// Router architecture
//
vc_allocator = separable_input_first; 
sw_allocator = separable_input_first;
alloc_iters  = 1;

credit_delay   = 2;
routing_delay  = 0;
vc_alloc_delay = 1;
sw_alloc_delay = 1;
st_final_delay = 1;

input_speedup     = 1;
output_speedup    = 1;
internal_speedup  = 1.0;


warmup_periods = 3;
sim_count          = 1;

sample_period  = 1000;  

routing_function = nca;
num_vcs     = 4;

priority = none;
traffic = bitcomp;


injection_rate = 0.60;
packet_size = 1;
injection_rate_uses_flits=1;

topology = fattree;

k  = 8;
n  = 4;
t = 4;

watch_file = watchfile.txt;
watch_out=-;
stats_out = examples/fattree_config_0.60_4_bitcomp.m;

END Configuration File: examples/fattree_config_0.60_4_bitcomp
Fat Tree
 k = 8 levels = 4
 each switch - total radix =  16
 # of switches = 2048
 # of channels = 24576
 # of nodes ( size of network ) = 4096
 tapering factor = 4
0 | node4 | Enqueuing flit 1 (packet 1) at time 0.
0 | node5 | Enqueuing flit 2 (packet 2) at time 0.
0 | node8 | Enqueuing flit 3 (packet 3) at time 0.
0 | node9 | Enqueuing flit 4 (packet 4) at time 0.
0 | node11 | Enqueuing flit 5 (packet 5) at time 0.
0 | node12 | Enqueuing flit 6 (packet 6) at time 0.
0 | node13 | Enqueuing flit 7 (packet 7) at time 0.
0 | node14 | Enqueuing flit 8 (packet 8) at time 0.
0 | node15 | Enqueuing flit 9 (packet 9) at time 0.
0 | node17 | Enqueuing flit 10 (packet 10) at time 0.
0 | traffic_manager | Finding output VC for flit 1:
0 | traffic_manager |   Selected output VC 0.
0 | node4 | Generating lookahead routing info for flit 1.
0 | node4 | Injecting flit 1 into subnet 0 at time 0 with priority 0.
0 | traffic_manager | Finding output VC for flit 2:
0 | traffic_manager |   Selected output VC 0.
0 | node5 | Generating lookahead routing info for flit 2.
0 | node5 | Injecting flit 2 into subnet 0 at time 0 with priority 0.
0 | traffic_manager | Finding output VC for flit 3:
0 | traffic_manager |   Selected output VC 0.
0 | node8 | Generating lookahead routing info for flit 3.
0 | node8 | Injecting flit 3 into subnet 0 at time 0 with priority 0.
0 | traffic_manager | Finding output VC for flit 4:
0 | traffic_manager |   Selected output VC 0.
0 | node9 | Generating lookahead routing info for flit 4.
0 | node9 | Injecting flit 4 into subnet 0 at time 0 with priority 0.
0 | traffic_manager | Finding output VC for flit 5:
0 | traffic_manager |   Selected output VC 0.
0 | node11 | Generating lookahead routing info for flit 5.
0 | node11 | Injecting flit 5 into subnet 0 at time 0 with priority 0.
0 | traffic_manager | Finding output VC for flit 6:
0 | traffic_manager |   Selected output VC 0.
0 | node12 | Generating lookahead routing info for flit 6.
0 | node12 | Injecting flit 6 into subnet 0 at time 0 with priority 0.
0 | traffic_manager | Finding output VC for flit 7:
0 | traffic_manager |   Selected output VC 0.
0 | node13 | Generating lookahead routing info for flit 7.
0 | node13 | Injecting flit 7 into subnet 0 at time 0 with priority 0.
0 | traffic_manager | Finding output VC for flit 8:
0 | traffic_manager |   Selected output VC 0.
0 | node14 | Generating lookahead routing info for flit 8.
0 | node14 | Injecting flit 8 into subnet 0 at time 0 with priority 0.
0 | traffic_manager | Finding output VC for flit 9:
0 | traffic_manager |   Selected output VC 0.
0 | node15 | Generating lookahead routing info for flit 9.
0 | node15 | Injecting flit 9 into subnet 0 at time 0 with priority 0.
0 | traffic_manager | Finding output VC for flit 10:
0 | traffic_manager |   Selected output VC 0.
0 | node17 | Generating lookahead routing info for flit 10.
0 | node17 | Injecting flit 10 into subnet 0 at time 0 with priority 0.
1 | network_0/network_0_fchan_ingress4 | Beginning channel traversal for flit 1 with delay 1.
1 | network_0/network_0_fchan_ingress5 | Beginning channel traversal for flit 2 with delay 1.
1 | network_0/network_0_fchan_ingress8 | Beginning channel traversal for flit 3 with delay 1.
1 | network_0/network_0_fchan_ingress9 | Beginning channel traversal for flit 4 with delay 1.
1 | network_0/network_0_fchan_ingress11 | Beginning channel traversal for flit 5 with delay 1.
1 | network_0/network_0_fchan_ingress12 | Beginning channel traversal for flit 6 with delay 1.
1 | network_0/network_0_fchan_ingress13 | Beginning channel traversal for flit 7 with delay 1.
1 | network_0/network_0_fchan_ingress14 | Beginning channel traversal for flit 8 with delay 1.
1 | network_0/network_0_fchan_ingress15 | Beginning channel traversal for flit 9 with delay 1.
1 | network_0/network_0_fchan_ingress17 | Beginning channel traversal for flit 10 with delay 1.
1 | network_0/network_0_fchan_ingress4 | Completed channel traversal for flit 1.
1 | network_0/network_0_fchan_ingress5 | Completed channel traversal for flit 2.
1 | network_0/network_0_fchan_ingress8 | Completed channel traversal for flit 3.
1 | network_0/network_0_fchan_ingress9 | Completed channel traversal for flit 4.
1 | network_0/network_0_fchan_ingress11 | Completed channel traversal for flit 5.
1 | network_0/network_0_fchan_ingress12 | Completed channel traversal for flit 6.
1 | network_0/network_0_fchan_ingress13 | Completed channel traversal for flit 7.
1 | network_0/network_0_fchan_ingress14 | Completed channel traversal for flit 8.
1 | network_0/network_0_fchan_ingress15 | Completed channel traversal for flit 9.
1 | network_0/network_0_fchan_ingress17 | Completed channel traversal for flit 10.
2 | network_0/router_level3_0 | Received flit 1 from channel at input 4.
2 | network_0/router_level3_0 | Received flit 2 from channel at input 5.
2 | network_0/router_level3_1 | Received flit 3 from channel at input 0.
2 | network_0/router_level3_1 | Received flit 4 from channel at input 1.
2 | network_0/router_level3_1 | Received flit 5 from channel at input 3.
2 | network_0/router_level3_1 | Received flit 6 from channel at input 4.
2 | network_0/router_level3_1 | Received flit 7 from channel at input 5.
2 | network_0/router_level3_1 | Received flit 8 from channel at input 6.
2 | network_0/router_level3_1 | Received flit 9 from channel at input 7.
2 | network_0/router_level3_2 | Received flit 10 from channel at input 1.
2 | network_0/router_level3_0 | Adding flit 1 to VC 0 at input 4 (state: idle, empty).
2 | network_0/router_level3_0 | Using precomputed lookahead routing information for VC 0 at input 4 (front: 1).
2 | network_0/router_level3_0/buf_4/vc_0 | Changing state from idle to vc_alloc.
2 | network_0/router_level3_0 | Adding flit 2 to VC 0 at input 5 (state: idle, empty).
2 | network_0/router_level3_0 | Using precomputed lookahead routing information for VC 0 at input 5 (front: 2).
2 | network_0/router_level3_0/buf_5/vc_0 | Changing state from idle to vc_alloc.
2 | network_0/router_level3_0 | Beginning VC allocation for VC 0 at input 4 (front: 1).
2 | network_0/router_level3_0 |   Requesting VC 0 at output 13 (in_pri: 0, out_pri: 0).
2 | network_0/router_level3_0 |   Requesting VC 1 at output 13 (in_pri: 0, out_pri: 0).
2 | network_0/router_level3_0 |   Requesting VC 2 at output 13 (in_pri: 0, out_pri: 0).
2 | network_0/router_level3_0 |   Requesting VC 3 at output 13 (in_pri: 0, out_pri: 0).
2 | network_0/router_level3_0 | Beginning VC allocation for VC 0 at input 5 (front: 2).
2 | network_0/router_level3_0 |   Requesting VC 0 at output 14 (in_pri: 0, out_pri: 0).
2 | network_0/router_level3_0 |   Requesting VC 1 at output 14 (in_pri: 0, out_pri: 0).
2 | network_0/router_level3_0 |   Requesting VC 2 at output 14 (in_pri: 0, out_pri: 0).
2 | network_0/router_level3_0 |   Requesting VC 3 at output 14 (in_pri: 0, out_pri: 0).
2 | network_0/router_level3_0/vc_allocator | Input requests = [ 4 -> [ 48@0 49@0 50@0 51@0 ]  16 -> [ 52@0 53@0 54@0 55@0 ]  20 -> [ 56@0 57@0 58@0 59@0 ]  ], output requests = [ 48 -> [ 4@0 ]  49 -> [ 4@0 ]  50 -> [ 4@0 ]  51 -> [ 4@0 ]  52 -> [ 16@0 ]  53 -> [ 16@0 ]  54 -> [ 16@0 ]  55 -> [ 16@0 ]  56 -> [ 20@0 ]  57 -> [ 20@0 ]  58 -> [ 20@0 ]  59 -> [ 20@0 ]  ].
2 | network_0/router_level3_0/vc_allocator | Input grants = [ 4 -> 48  16 -> 52  20 -> 56  ], output grants = [ 48 -> 4  52 -> 16  56 -> 20  ].
2 | network_0/router_level3_0 | Assigning VC 0 at output 13 to VC 0 at input 4.
2 | network_0/router_level3_0 | Assigning VC 0 at output 14 to VC 0 at input 5.
2 | network_0/router_level3_0 | Completed VC allocation for VC 0 at input 4 (front: 1).
2 | network_0/router_level3_0 |   Acquiring assigned VC 0 at output 13.
2 | network_0/router_level3_0/buf_4/vc_0 | Changing state from vc_alloc to active.
2 | network_0/router_level3_0 | Completed VC allocation for VC 0 at input 5 (front: 2).
2 | network_0/router_level3_0 |   Acquiring assigned VC 0 at output 14.
2 | network_0/router_level3_0/buf_5/vc_0 | Changing state from vc_alloc to active.
2 | network_0/router_level3_1 | Adding flit 3 to VC 0 at input 0 (state: idle, empty).
2 | network_0/router_level3_1 | Using precomputed lookahead routing information for VC 0 at input 0 (front: 3).
2 | network_0/router_level3_1/buf_0/vc_0 | Changing state from idle to vc_alloc.
2 | network_0/router_level3_1 | Adding flit 4 to VC 0 at input 1 (state: idle, empty).
2 | network_0/router_level3_1 | Using precomputed lookahead routing information for VC 0 at input 1 (front: 4).
2 | network_0/router_level3_1/buf_1/vc_0 | Changing state from idle to vc_alloc.
2 | network_0/router_level3_1 | Adding flit 5 to VC 0 at input 3 (state: idle, empty).
2 | network_0/router_level3_1 | Using precomputed lookahead routing information for VC 0 at input 3 (front: 5).
2 | network_0/router_level3_1/buf_3/vc_0 | Changing state from idle to vc_alloc.
2 | network_0/router_level3_1 | Adding flit 6 to VC 0 at input 4 (state: idle, empty).
2 | network_0/router_level3_1 | Using precomputed lookahead routing information for VC 0 at input 4 (front: 6).
2 | network_0/router_level3_1/buf_4/vc_0 | Changing state from idle to vc_alloc.
2 | network_0/router_level3_1 | Adding flit 7 to VC 0 at input 5 (state: idle, empty).
2 | network_0/router_level3_1 | Using precomputed lookahead routing information for VC 0 at input 5 (front: 7).
2 | network_0/router_level3_1/buf_5/vc_0 | Changing state from idle to vc_alloc.
2 | network_0/router_level3_1 | Adding flit 8 to VC 0 at input 6 (state: idle, empty).
2 | network_0/router_level3_1 | Using precomputed lookahead routing information for VC 0 at input 6 (front: 8).
2 | network_0/router_level3_1/buf_6/vc_0 | Changing state from idle to vc_alloc.
2 | network_0/router_level3_1 | Adding flit 9 to VC 0 at input 7 (state: idle, empty).
2 | network_0/router_level3_1 | Using precomputed lookahead routing information for VC 0 at input 7 (front: 9).
2 | network_0/router_level3_1/buf_7/vc_0 | Changing state from idle to vc_alloc.
2 | network_0/router_level3_1 | Beginning VC allocation for VC 0 at input 0 (front: 3).
2 | network_0/router_level3_1 |   Requesting VC 0 at output 14 (in_pri: 0, out_pri: 0).
2 | network_0/router_level3_1 |   Requesting VC 1 at output 14 (in_pri: 0, out_pri: 0).
2 | network_0/router_level3_1 |   Requesting VC 2 at output 14 (in_pri: 0, out_pri: 0).
2 | network_0/router_level3_1 |   Requesting VC 3 at output 14 (in_pri: 0, out_pri: 0).
2 | network_0/router_level3_1 | Beginning VC allocation for VC 0 at input 1 (front: 4).
2 | network_0/router_level3_1 |   Requesting VC 0 at output 11 (in_pri: 0, out_pri: 0).
2 | network_0/router_level3_1 |   Requesting VC 1 at output 11 (in_pri: 0, out_pri: 0).
2 | network_0/router_level3_1 |   Requesting VC 2 at output 11 (in_pri: 0, out_pri: 0).
2 | network_0/router_level3_1 |   Requesting VC 3 at output 11 (in_pri: 0, out_pri: 0).
2 | network_0/router_level3_1 | Beginning VC allocation for VC 0 at input 3 (front: 5).
2 | network_0/router_level3_1 |   Requesting VC 0 at output 12 (in_pri: 0, out_pri: 0).
2 | network_0/router_level3_1 |   Requesting VC 1 at output 12 (in_pri: 0, out_pri: 0).
2 | network_0/router_level3_1 |   Requesting VC 2 at output 12 (in_pri: 0, out_pri: 0).
2 | network_0/router_level3_1 |   Requesting VC 3 at output 12 (in_pri: 0, out_pri: 0).
2 | network_0/router_level3_1 | Beginning VC allocation for VC 0 at input 4 (front: 6).
2 | network_0/router_level3_1 |   Requesting VC 0 at output 13 (in_pri: 0, out_pri: 0).
2 | network_0/router_level3_1 |   Requesting VC 1 at output 13 (in_pri: 0, out_pri: 0).
2 | network_0/router_level3_1 |   Requesting VC 2 at output 13 (in_pri: 0, out_pri: 0).
2 | network_0/router_level3_1 |   Requesting VC 3 at output 13 (in_pri: 0, out_pri: 0).
2 | network_0/router_level3_1 | Beginning VC allocation for VC 0 at input 5 (front: 7).
2 | network_0/router_level3_1 |   Requesting VC 0 at output 11 (in_pri: 0, out_pri: 0).
2 | network_0/router_level3_1 |   Requesting VC 1 at output 11 (in_pri: 0, out_pri: 0).
2 | network_0/router_level3_1 |   Requesting VC 2 at output 11 (in_pri: 0, out_pri: 0).
2 | network_0/router_level3_1 |   Requesting VC 3 at output 11 (in_pri: 0, out_pri: 0).
2 | network_0/router_level3_1 | Beginning VC allocation for VC 0 at input 6 (front: 8).
2 | network_0/router_level3_1 |   Requesting VC 0 at output 8 (in_pri: 0, out_pri: 0).
2 | network_0/router_level3_1 |   Requesting VC 1 at output 8 (in_pri: 0, out_pri: 0).
2 | network_0/router_level3_1 |   Requesting VC 2 at output 8 (in_pri: 0, out_pri: 0).
2 | network_0/router_level3_1 |   Requesting VC 3 at output 8 (in_pri: 0, out_pri: 0).
2 | network_0/router_level3_1 | Beginning VC allocation for VC 0 at input 7 (front: 9).
2 | network_0/router_level3_1 |   Requesting VC 0 at output 10 (in_pri: 0, out_pri: 0).
2 | network_0/router_level3_1 |   Requesting VC 1 at output 10 (in_pri: 0, out_pri: 0).
2 | network_0/router_level3_1 |   Requesting VC 2 at output 10 (in_pri: 0, out_pri: 0).
2 | network_0/router_level3_1 |   Requesting VC 3 at output 10 (in_pri: 0, out_pri: 0).
2 | network_0/router_level3_1/vc_allocator | Input requests = [ 0 -> [ 56@0 57@0 58@0 59@0 ]  4 -> [ 44@0 45@0 46@0 47@0 ]  12 -> [ 48@0 49@0 50@0 51@0 ]  16 -> [ 52@0 53@0 54@0 55@0 ]  20 -> [ 44@0 45@0 46@0 47@0 ]  24 -> [ 32@0 33@0 34@0 35@0 ]  28 -> [ 40@0 41@0 42@0 43@0 ]  ], output requests = [ 32 -> [ 24@0 ]  33 -> [ 24@0 ]  34 -> [ 24@0 ]  35 -> [ 24@0 ]  40 -> [ 28@0 ]  41 -> [ 28@0 ]  42 -> [ 28@0 ]  43 -> [ 28@0 ]  44 -> [ 4@0 20@0 ]  45 -> [ 4@0 20@0 ]  46 -> [ 4@0 20@0 ]  47 -> [ 4@0 20@0 ]  48 -> [ 12@0 ]  49 -> [ 12@0 ]  50 -> [ 12@0 ]  51 -> [ 12@0 ]  52 -> [ 16@0 ]  53 -> [ 16@0 ]  54 -> [ 16@0 ]  55 -> [ 16@0 ]  56 -> [ 0@0 ]  57 -> [ 0@0 ]  58 -> [ 0@0 ]  59 -> [ 0@0 ]  ].
2 | network_0/router_level3_1/vc_allocator | Input grants = [ 0 -> 56  4 -> 44  12 -> 48  16 -> 52  24 -> 32  28 -> 40  ], output grants = [ 32 -> 24  40 -> 28  44 -> 4  48 -> 12  52 -> 16  56 -> 0  ].
2 | network_0/router_level3_1 | Assigning VC 0 at output 14 to VC 0 at input 0.
2 | network_0/router_level3_1 | Assigning VC 0 at output 11 to VC 0 at input 1.
2 | network_0/router_level3_1 | Assigning VC 0 at output 12 to VC 0 at input 3.
2 | network_0/router_level3_1 | Assigning VC 0 at output 13 to VC 0 at input 4.
2 | network_0/router_level3_1 | VC allocation failed for VC 0 at input 5.
2 | network_0/router_level3_1 | Assigning VC 0 at output 8 to VC 0 at input 6.
2 | network_0/router_level3_1 | Assigning VC 0 at output 10 to VC 0 at input 7.
2 | network_0/router_level3_1 | Completed VC allocation for VC 0 at input 0 (front: 3).
2 | network_0/router_level3_1 |   Acquiring assigned VC 0 at output 14.
2 | network_0/router_level3_1/buf_0/vc_0 | Changing state from vc_alloc to active.
2 | network_0/router_level3_1 | Completed VC allocation for VC 0 at input 1 (front: 4).
2 | network_0/router_level3_1 |   Acquiring assigned VC 0 at output 11.
2 | network_0/router_level3_1/buf_1/vc_0 | Changing state from vc_alloc to active.
2 | network_0/router_level3_1 | Completed VC allocation for VC 0 at input 3 (front: 5).
2 | network_0/router_level3_1 |   Acquiring assigned VC 0 at output 12.
2 | network_0/router_level3_1/buf_3/vc_0 | Changing state from vc_alloc to active.
2 | network_0/router_level3_1 | Completed VC allocation for VC 0 at input 4 (front: 6).
2 | network_0/router_level3_1 |   Acquiring assigned VC 0 at output 13.
2 | network_0/router_level3_1/buf_4/vc_0 | Changing state from vc_alloc to active.
2 | network_0/router_level3_1 | Completed VC allocation for VC 0 at input 5 (front: 7).
2 | network_0/router_level3_1 |   No output VC allocated.
2 | network_0/router_level3_1 | Completed VC allocation for VC 0 at input 6 (front: 8).
2 | network_0/router_level3_1 |   Acquiring assigned VC 0 at output 8.
2 | network_0/router_level3_1/buf_6/vc_0 | Changing state from vc_alloc to active.
2 | network_0/router_level3_1 | Completed VC allocation for VC 0 at input 7 (front: 9).
2 | network_0/router_level3_1 |   Acquiring assigned VC 0 at output 10.
2 | network_0/router_level3_1/buf_7/vc_0 | Changing state from vc_alloc to active.
2 | network_0/router_level3_2 | Adding flit 10 to VC 0 at input 1 (state: idle, empty).
2 | network_0/router_level3_2 | Using precomputed lookahead routing information for VC 0 at input 1 (front: 10).
2 | network_0/router_level3_2/buf_1/vc_0 | Changing state from idle to vc_alloc.
2 | network_0/router_level3_2 | Beginning VC allocation for VC 0 at input 1 (front: 10).
2 | network_0/router_level3_2 |   Requesting VC 0 at output 13 (in_pri: 0, out_pri: 0).
2 | network_0/router_level3_2 |   Requesting VC 1 at output 13 (in_pri: 0, out_pri: 0).
2 | network_0/router_level3_2 |   Requesting VC 2 at output 13 (in_pri: 0, out_pri: 0).
2 | network_0/router_level3_2 |   Requesting VC 3 at output 13 (in_pri: 0, out_pri: 0).
2 | network_0/router_level3_2/vc_allocator | Input requests = [ 4 -> [ 52@0 53@0 54@0 55@0 ]  8 -> [ 56@0 57@0 58@0 59@0 ]  12 -> [ 60@0 61@0 62@0 63@0 ]  16 -> [ 60@0 61@0 62@0 63@0 ]  20 -> [ 32@0 33@0 34@0 35@0 ]  24 -> [ 60@0 61@0 62@0 63@0 ]  28 -> [ 44@0 45@0 46@0 47@0 ]  ], output requests = [ 32 -> [ 20@0 ]  33 -> [ 20@0 ]  34 -> [ 20@0 ]  35 -> [ 20@0 ]  44 -> [ 28@0 ]  45 -> [ 28@0 ]  46 -> [ 28@0 ]  47 -> [ 28@0 ]  52 -> [ 4@0 ]  53 -> [ 4@0 ]  54 -> [ 4@0 ]  55 -> [ 4@0 ]  56 -> [ 8@0 ]  57 -> [ 8@0 ]  58 -> [ 8@0 ]  59 -> [ 8@0 ]  60 -> [ 12@0 16@0 24@0 ]  61 -> [ 12@0 16@0 24@0 ]  62 -> [ 12@0 16@0 24@0 ]  63 -> [ 12@0 16@0 24@0 ]  ].
2 | network_0/router_level3_2/vc_allocator | Input grants = [ 4 -> 52  8 -> 56  12 -> 60  20 -> 32  28 -> 44  ], output grants = [ 32 -> 20  44 -> 28  52 -> 4  56 -> 8  60 -> 12  ].
2 | network_0/router_level3_2 | Assigning VC 0 at output 13 to VC 0 at input 1.
2 | network_0/router_level3_2 | Completed VC allocation for VC 0 at input 1 (front: 10).
2 | network_0/router_level3_2 |   Acquiring assigned VC 0 at output 13.
2 | network_0/router_level3_2/buf_1/vc_0 | Changing state from vc_alloc to active.
3 | network_0/router_level3_0 | Beginning switch allocation for VC 0 at input 4 (front: 1).
3 | network_0/router_level3_0 |   Requesting output 13.0 (non-spec, pri: 0).
3 | network_0/router_level3_0 | Beginning switch allocation for VC 0 at input 5 (front: 2).
3 | network_0/router_level3_0 |   Requesting output 14.0 (non-spec, pri: 0).
3 | network_0/router_level3_0/sw_allocator | Input requests = [ 1 -> [ 12@0 ]  4 -> [ 13@0 ]  5 -> [ 14@0 ]  ], output requests = [ 12 -> [ 1@0 ]  13 -> [ 4@0 ]  14 -> [ 5@0 ]  ].
3 | network_0/router_level3_0/sw_allocator | Input grants = [ 1 -> 12  4 -> 13  5 -> 14  ], output grants = [ 12 -> 1  13 -> 4  14 -> 5  ].
3 | network_0/router_level3_0 | Assigning output 13.0 to VC 0 at input 4.0.
3 | network_0/router_level3_0 | Assigning output 14.0 to VC 0 at input 5.0.
3 | network_0/router_level3_0 | Completed switch allocation for VC 0 at input 4 (front: 1).
3 | network_0/router_level3_0 |   Scheduling switch connection from input 4.0 to output 13.0.
3 | network_0/router_level3_0 | Updating lookahead routing information for flit 1.
3 | network_0/router_level3_0 | Completed switch allocation for VC 0 at input 5 (front: 2).
3 | network_0/router_level3_0 |   Scheduling switch connection from input 5.0 to output 14.0.
3 | network_0/router_level3_0 | Updating lookahead routing information for flit 2.
3 | network_0/router_level3_1 | Beginning VC allocation for VC 0 at input 5 (front: 7).
3 | network_0/router_level3_1 |   VC 0 at output 11 is in use by VC 0 at input 1 (front flit: 4).
3 | network_0/router_level3_1 |   Requesting VC 1 at output 11 (in_pri: 0, out_pri: 0).
3 | network_0/router_level3_1 |   Requesting VC 2 at output 11 (in_pri: 0, out_pri: 0).
3 | network_0/router_level3_1 |   Requesting VC 3 at output 11 (in_pri: 0, out_pri: 0).
3 | network_0/router_level3_1/vc_allocator | Input requests = [ 5 -> [ 57@0 58@0 59@0 ]  17 -> [ 36@0 37@0 38@0 39@0 ]  20 -> [ 45@0 46@0 47@0 ]  21 -> [ 53@0 54@0 55@0 ]  25 -> [ 49@0 50@0 51@0 ]  ], output requests = [ 36 -> [ 17@0 ]  37 -> [ 17@0 ]  38 -> [ 17@0 ]  39 -> [ 17@0 ]  45 -> [ 20@0 ]  46 -> [ 20@0 ]  47 -> [ 20@0 ]  49 -> [ 25@0 ]  50 -> [ 25@0 ]  51 -> [ 25@0 ]  53 -> [ 21@0 ]  54 -> [ 21@0 ]  55 -> [ 21@0 ]  57 -> [ 5@0 ]  58 -> [ 5@0 ]  59 -> [ 5@0 ]  ].
3 | network_0/router_level3_1/vc_allocator | Input grants = [ 5 -> 57  17 -> 36  20 -> 45  21 -> 53  25 -> 49  ], output grants = [ 36 -> 17  45 -> 20  49 -> 25  53 -> 21  57 -> 5  ].
3 | network_0/router_level3_1 | Assigning VC 1 at output 11 to VC 0 at input 5.
3 | network_0/router_level3_1 | Beginning switch allocation for VC 0 at input 0 (front: 3).
3 | network_0/router_level3_1 |   Requesting output 14.0 (non-spec, pri: 0).
3 | network_0/router_level3_1 | Beginning switch allocation for VC 0 at input 1 (front: 4).
3 | network_0/router_level3_1 |   Requesting output 11.0 (non-spec, pri: 0).
3 | network_0/router_level3_1 | Beginning switch allocation for VC 0 at input 3 (front: 5).
3 | network_0/router_level3_1 |   Requesting output 12.0 (non-spec, pri: 0).
3 | network_0/router_level3_1 | Beginning switch allocation for VC 0 at input 4 (front: 6).
3 | network_0/router_level3_1 |   Requesting output 13.0 (non-spec, pri: 0).
3 | network_0/router_level3_1 | Beginning switch allocation for VC 0 at input 6 (front: 8).
3 | network_0/router_level3_1 |   Requesting output 8.0 (non-spec, pri: 0).
3 | network_0/router_level3_1 | Beginning switch allocation for VC 0 at input 7 (front: 9).
3 | network_0/router_level3_1 |   Requesting output 10.0 (non-spec, pri: 0).
3 | network_0/router_level3_1/sw_allocator | Input requests = [ 0 -> [ 14@0 ]  1 -> [ 11@0 ]  3 -> [ 12@0 ]  4 -> [ 13@0 ]  6 -> [ 8@0 ]  7 -> [ 10@0 ]  ], output requests = [ 8 -> [ 6@0 ]  10 -> [ 7@0 ]  11 -> [ 1@0 ]  12 -> [ 3@0 ]  13 -> [ 4@0 ]  14 -> [ 0@0 ]  ].
3 | network_0/router_level3_1/sw_allocator | Input grants = [ 0 -> 14  1 -> 11  3 -> 12  4 -> 13  6 -> 8  7 -> 10  ], output grants = [ 8 -> 6  10 -> 7  11 -> 1  12 -> 3  13 -> 4  14 -> 0  ].
3 | network_0/router_level3_1 | Assigning output 14.0 to VC 0 at input 0.0.
3 | network_0/router_level3_1 | Assigning output 11.0 to VC 0 at input 1.0.
3 | network_0/router_level3_1 | Assigning output 12.0 to VC 0 at input 3.0.
3 | network_0/router_level3_1 | Assigning output 13.0 to VC 0 at input 4.0.
3 | network_0/router_level3_1 | Assigning output 8.0 to VC 0 at input 6.0.
3 | network_0/router_level3_1 | Assigning output 10.0 to VC 0 at input 7.0.
3 | network_0/router_level3_1 | Completed VC allocation for VC 0 at input 5 (front: 7).
3 | network_0/router_level3_1 |   Acquiring assigned VC 1 at output 11.
3 | network_0/router_level3_1/buf_5/vc_0 | Changing state from vc_alloc to active.
3 | network_0/router_level3_1 | Completed switch allocation for VC 0 at input 0 (front: 3).
3 | network_0/router_level3_1 |   Scheduling switch connection from input 0.0 to output 14.0.
3 | network_0/router_level3_1 | Updating lookahead routing information for flit 3.
3 | network_0/router_level3_1 | Completed switch allocation for VC 0 at input 1 (front: 4).
3 | network_0/router_level3_1 |   Scheduling switch connection from input 1.0 to output 11.0.
3 | network_0/router_level3_1 | Updating lookahead routing information for flit 4.
3 | network_0/router_level3_1 | Completed switch allocation for VC 0 at input 3 (front: 5).
3 | network_0/router_level3_1 |   Scheduling switch connection from input 3.0 to output 12.0.
3 | network_0/router_level3_1 | Updating lookahead routing information for flit 5.
3 | network_0/router_level3_1 | Completed switch allocation for VC 0 at input 4 (front: 6).
3 | network_0/router_level3_1 |   Scheduling switch connection from input 4.0 to output 13.0.
3 | network_0/router_level3_1 | Updating lookahead routing information for flit 6.
3 | network_0/router_level3_1 | Completed switch allocation for VC 0 at input 6 (front: 8).
3 | network_0/router_level3_1 |   Scheduling switch connection from input 6.0 to output 8.0.
3 | network_0/router_level3_1 | Updating lookahead routing information for flit 8.
3 | network_0/router_level3_1 | Completed switch allocation for VC 0 at input 7 (front: 9).
3 | network_0/router_level3_1 |   Scheduling switch connection from input 7.0 to output 10.0.
3 | network_0/router_level3_1 | Updating lookahead routing information for flit 9.
3 | network_0/router_level3_2 | Beginning switch allocation for VC 0 at input 1 (front: 10).
3 | network_0/router_level3_2 |   Requesting output 13.0 (non-spec, pri: 0).
3 | network_0/router_level3_2/sw_allocator | Input requests = [ 1 -> [ 13@0 ]  2 -> [ 14@0 ]  3 -> [ 15@0 ]  5 -> [ 8@0 ]  7 -> [ 11@0 ]  ], output requests = [ 8 -> [ 5@0 ]  11 -> [ 7@0 ]  13 -> [ 1@0 ]  14 -> [ 2@0 ]  15 -> [ 3@0 ]  ].
3 | network_0/router_level3_2/sw_allocator | Input grants = [ 1 -> 13  2 -> 14  3 -> 15  5 -> 8  7 -> 11  ], output grants = [ 8 -> 5  11 -> 7  13 -> 1  14 -> 2  15 -> 3  ].
3 | network_0/router_level3_2 | Assigning output 13.0 to VC 0 at input 1.0.
3 | network_0/router_level3_2 | Completed switch allocation for VC 0 at input 1 (front: 10).
3 | network_0/router_level3_2 |   Scheduling switch connection from input 1.0 to output 13.0.
3 | network_0/router_level3_2 | Updating lookahead routing information for flit 10.
4 | network_0/router_level3_0 | Beginning crossbar traversal for flit 1 from input 4.0 to output 13.0.
4 | network_0/router_level3_0 | Beginning crossbar traversal for flit 2 from input 5.0 to output 14.0.
4 | network_0/router_level3_0 | Completed crossbar traversal for flit 1 from input 4.0 to output 13.0.
4 | network_0/router_level3_0 | Buffering flit 1 at output 13.
4 | network_0/router_level3_0 | Completed crossbar traversal for flit 2 from input 5.0 to output 14.0.
4 | network_0/router_level3_0 | Buffering flit 2 at output 14.
4 | network_0/router_level3_1 | Beginning switch allocation for VC 0 at input 5 (front: 7).
4 | network_0/router_level3_1 |   Requesting output 11.0 (non-spec, pri: 0).
4 | network_0/router_level3_1/sw_allocator | Input requests = [ 1 -> [ 14@0 ]  4 -> [ 9@0 ]  5 -> [ 11@0 13@0 ]  6 -> [ 12@0 ]  ], output requests = [ 9 -> [ 4@0 ]  11 -> [ 5@0 ]  12 -> [ 6@0 ]  13 -> [ 5@0 ]  14 -> [ 1@0 ]  ].
4 | network_0/router_level3_1/sw_allocator | Input grants = [ 1 -> 14  4 -> 9  5 -> 11  6 -> 12  ], output grants = [ 9 -> 4  11 -> 5  12 -> 6  14 -> 1  ].
4 | network_0/router_level3_1 | Assigning output 11.0 to VC 0 at input 5.0.
4 | network_0/router_level3_1 | Beginning crossbar traversal for flit 3 from input 0.0 to output 14.0.
4 | network_0/router_level3_1 | Beginning crossbar traversal for flit 4 from input 1.0 to output 11.0.
4 | network_0/router_level3_1 | Beginning crossbar traversal for flit 5 from input 3.0 to output 12.0.
4 | network_0/router_level3_1 | Beginning crossbar traversal for flit 6 from input 4.0 to output 13.0.
4 | network_0/router_level3_1 | Beginning crossbar traversal for flit 8 from input 6.0 to output 8.0.
4 | network_0/router_level3_1 | Beginning crossbar traversal for flit 9 from input 7.0 to output 10.0.
4 | network_0/router_level3_1 | Completed switch allocation for VC 0 at input 5 (front: 7).
4 | network_0/router_level3_1 |   Scheduling switch connection from input 5.0 to output 11.0.
4 | network_0/router_level3_1 | Updating lookahead routing information for flit 7.
4 | network_0/router_level3_1 | Completed crossbar traversal for flit 3 from input 0.0 to output 14.0.
4 | network_0/router_level3_1 | Buffering flit 3 at output 14.
4 | network_0/router_level3_1 | Completed crossbar traversal for flit 4 from input 1.0 to output 11.0.
4 | network_0/router_level3_1 | Buffering flit 4 at output 11.
4 | network_0/router_level3_1 | Completed crossbar traversal for flit 5 from input 3.0 to output 12.0.
4 | network_0/router_level3_1 | Buffering flit 5 at output 12.
4 | network_0/router_level3_1 | Completed crossbar traversal for flit 6 from input 4.0 to output 13.0.
4 | network_0/router_level3_1 | Buffering flit 6 at output 13.
4 | network_0/router_level3_1 | Completed crossbar traversal for flit 8 from input 6.0 to output 8.0.
4 | network_0/router_level3_1 | Buffering flit 8 at output 8.
4 | network_0/router_level3_1 | Completed crossbar traversal for flit 9 from input 7.0 to output 10.0.
4 | network_0/router_level3_1 | Buffering flit 9 at output 10.
4 | network_0/router_level3_2 | Beginning crossbar traversal for flit 10 from input 1.0 to output 13.0.
4 | network_0/router_level3_2 | Completed crossbar traversal for flit 10 from input 1.0 to output 13.0.
4 | network_0/router_level3_2 | Buffering flit 10 at output 13.
4 | network_0/router_level3_0 | Sending flit 1 to channel at output 13.
4 | network_0/router_level3_0 | Sending flit 2 to channel at output 14.
4 | network_0/router_level3_1 | Sending flit 8 to channel at output 8.
4 | network_0/router_level3_1 | Sending flit 9 to channel at output 10.
4 | network_0/router_level3_1 | Sending flit 4 to channel at output 11.
4 | network_0/router_level3_1 | Sending flit 5 to channel at output 12.
4 | network_0/router_level3_1 | Sending flit 6 to channel at output 13.
4 | network_0/router_level3_1 | Sending flit 3 to channel at output 14.
4 | network_0/router_level3_2 | Sending flit 10 to channel at output 13.
5 | network_0/network_0_fchan_20485 | Beginning channel traversal for flit 1 with delay 1.
5 | network_0/network_0_fchan_20486 | Beginning channel traversal for flit 2 with delay 1.
5 | network_0/network_0_fchan_20488 | Beginning channel traversal for flit 8 with delay 1.
5 | network_0/network_0_fchan_20490 | Beginning channel traversal for flit 9 with delay 1.
5 | network_0/network_0_fchan_20491 | Beginning channel traversal for flit 4 with delay 1.
5 | network_0/network_0_fchan_20492 | Beginning channel traversal for flit 5 with delay 1.
5 | network_0/network_0_fchan_20493 | Beginning channel traversal for flit 6 with delay 1.
5 | network_0/network_0_fchan_20494 | Beginning channel traversal for flit 3 with delay 1.
5 | network_0/network_0_fchan_20501 | Beginning channel traversal for flit 10 with delay 1.
5 | network_0/router_level3_1 | Beginning crossbar traversal for flit 7 from input 5.0 to output 11.0.
5 | network_0/router_level3_1 | Completed crossbar traversal for flit 7 from input 5.0 to output 11.0.
5 | network_0/router_level3_1 | Buffering flit 7 at output 11.
5 | network_0/network_0_fchan_20485 | Completed channel traversal for flit 1.
5 | network_0/network_0_fchan_20486 | Completed channel traversal for flit 2.
5 | network_0/network_0_fchan_20488 | Completed channel traversal for flit 8.
5 | network_0/network_0_fchan_20490 | Completed channel traversal for flit 9.
5 | network_0/network_0_fchan_20491 | Completed channel traversal for flit 4.
5 | network_0/network_0_fchan_20492 | Completed channel traversal for flit 5.
5 | network_0/network_0_fchan_20493 | Completed channel traversal for flit 6.
5 | network_0/network_0_fchan_20494 | Completed channel traversal for flit 3.
5 | network_0/network_0_fchan_20501 | Completed channel traversal for flit 10.
5 | network_0/router_level3_1 | Sending flit 7 to channel at output 11.
6 | network_0/network_0_fchan_20491 | Beginning channel traversal for flit 7 with delay 1.
6 | network_0/router_level2_0 | Received flit 8 from channel at input 1.
6 | network_0/router_level2_2 | Received flit 9 from channel at input 1.
6 | network_0/router_level2_3 | Received flit 4 from channel at input 1.
6 | network_0/router_level2_4 | Received flit 5 from channel at input 1.
6 | network_0/router_level2_5 | Received flit 1 from channel at input 0.
6 | network_0/router_level2_5 | Received flit 6 from channel at input 1.
6 | network_0/router_level2_5 | Received flit 10 from channel at input 2.
6 | network_0/router_level2_6 | Received flit 2 from channel at input 0.
6 | network_0/router_level2_6 | Received flit 3 from channel at input 1.
6 | network_0/router_level2_0 | Adding flit 8 to VC 0 at input 1 (state: idle, empty).
6 | network_0/router_level2_0 | Using precomputed lookahead routing information for VC 0 at input 1 (front: 8).
6 | network_0/router_level2_0/buf_1/vc_0 | Changing state from idle to vc_alloc.
6 | network_0/router_level2_0 | Beginning VC allocation for VC 0 at input 1 (front: 8).
6 | network_0/router_level2_0 |   Requesting VC 0 at output 10 (in_pri: 0, out_pri: 0).
6 | network_0/router_level2_0 |   Requesting VC 1 at output 10 (in_pri: 0, out_pri: 0).
6 | network_0/router_level2_0 |   Requesting VC 2 at output 10 (in_pri: 0, out_pri: 0).
6 | network_0/router_level2_0 |   Requesting VC 3 at output 10 (in_pri: 0, out_pri: 0).
6 | network_0/router_level2_0/vc_allocator | Input requests = [ 4 -> [ 40@0 41@0 42@0 43@0 ]  8 -> [ 56@0 57@0 58@0 59@0 ]  16 -> [ 44@0 45@0 46@0 47@0 ]  20 -> [ 52@0 53@0 54@0 55@0 ]  24 -> [ 48@0 49@0 50@0 51@0 ]  ], output requests = [ 40 -> [ 4@0 ]  41 -> [ 4@0 ]  42 -> [ 4@0 ]  43 -> [ 4@0 ]  44 -> [ 16@0 ]  45 -> [ 16@0 ]  46 -> [ 16@0 ]  47 -> [ 16@0 ]  48 -> [ 24@0 ]  49 -> [ 24@0 ]  50 -> [ 24@0 ]  51 -> [ 24@0 ]  52 -> [ 20@0 ]  53 -> [ 20@0 ]  54 -> [ 20@0 ]  55 -> [ 20@0 ]  56 -> [ 8@0 ]  57 -> [ 8@0 ]  58 -> [ 8@0 ]  59 -> [ 8@0 ]  ].
6 | network_0/router_level2_0/vc_allocator | Input grants = [ 4 -> 40  8 -> 56  16 -> 44  20 -> 52  24 -> 48  ], output grants = [ 40 -> 4  44 -> 16  48 -> 24  52 -> 20  56 -> 8  ].
6 | network_0/router_level2_0 | Assigning VC 0 at output 10 to VC 0 at input 1.
6 | network_0/router_level2_0 | Completed VC allocation for VC 0 at input 1 (front: 8).
6 | network_0/router_level2_0 |   Acquiring assigned VC 0 at output 10.
6 | network_0/router_level2_0/buf_1/vc_0 | Changing state from vc_alloc to active.
6 | network_0/router_level2_2 | Adding flit 9 to VC 0 at input 1 (state: idle, empty).
6 | network_0/router_level2_2 | Using precomputed lookahead routing information for VC 0 at input 1 (front: 9).
6 | network_0/router_level2_2/buf_1/vc_0 | Changing state from idle to vc_alloc.
6 | network_0/router_level2_2 | Beginning VC allocation for VC 0 at input 1 (front: 9).
6 | network_0/router_level2_2 |   Requesting VC 0 at output 10 (in_pri: 0, out_pri: 0).
6 | network_0/router_level2_2 |   Requesting VC 1 at output 10 (in_pri: 0, out_pri: 0).
6 | network_0/router_level2_2 |   Requesting VC 2 at output 10 (in_pri: 0, out_pri: 0).
6 | network_0/router_level2_2 |   Requesting VC 3 at output 10 (in_pri: 0, out_pri: 0).
6 | network_0/router_level2_2/vc_allocator | Input requests = [ 4 -> [ 40@0 41@0 42@0 43@0 ]  16 -> [ 56@0 57@0 58@0 59@0 ]  28 -> [ 40@0 41@0 42@0 43@0 ]  ], output requests = [ 40 -> [ 4@0 28@0 ]  41 -> [ 4@0 28@0 ]  42 -> [ 4@0 28@0 ]  43 -> [ 4@0 28@0 ]  56 -> [ 16@0 ]  57 -> [ 16@0 ]  58 -> [ 16@0 ]  59 -> [ 16@0 ]  ].
6 | network_0/router_level2_2/vc_allocator | Input grants = [ 4 -> 40  16 -> 56  ], output grants = [ 40 -> 4  56 -> 16  ].
6 | network_0/router_level2_2 | Assigning VC 0 at output 10 to VC 0 at input 1.
6 | network_0/router_level2_2 | Completed VC allocation for VC 0 at input 1 (front: 9).
6 | network_0/router_level2_2 |   Acquiring assigned VC 0 at output 10.
6 | network_0/router_level2_2/buf_1/vc_0 | Changing state from vc_alloc to active.
6 | network_0/router_level2_3 | Adding flit 4 to VC 0 at input 1 (state: idle, empty).
6 | network_0/router_level2_3 | Using precomputed lookahead routing information for VC 0 at input 1 (front: 4).
6 | network_0/router_level2_3/buf_1/vc_0 | Changing state from idle to vc_alloc.
6 | network_0/router_level2_3 | Beginning VC allocation for VC 0 at input 1 (front: 4).
6 | network_0/router_level2_3 |   Requesting VC 0 at output 9 (in_pri: 0, out_pri: 0).
6 | network_0/router_level2_3 |   Requesting VC 1 at output 9 (in_pri: 0, out_pri: 0).
6 | network_0/router_level2_3 |   Requesting VC 2 at output 9 (in_pri: 0, out_pri: 0).
6 | network_0/router_level2_3 |   Requesting VC 3 at output 9 (in_pri: 0, out_pri: 0).
6 | network_0/router_level2_3/vc_allocator | Input requests = [ 4 -> [ 36@0 37@0 38@0 39@0 ]  8 -> [ 52@0 53@0 54@0 55@0 ]  16 -> [ 40@0 41@0 42@0 43@0 ]  20 -> [ 60@0 61@0 62@0 63@0 ]  28 -> [ 48@0 49@0 50@0 51@0 ]  ], output requests = [ 36 -> [ 4@0 ]  37 -> [ 4@0 ]  38 -> [ 4@0 ]  39 -> [ 4@0 ]  40 -> [ 16@0 ]  41 -> [ 16@0 ]  42 -> [ 16@0 ]  43 -> [ 16@0 ]  48 -> [ 28@0 ]  49 -> [ 28@0 ]  50 -> [ 28@0 ]  51 -> [ 28@0 ]  52 -> [ 8@0 ]  53 -> [ 8@0 ]  54 -> [ 8@0 ]  55 -> [ 8@0 ]  60 -> [ 20@0 ]  61 -> [ 20@0 ]  62 -> [ 20@0 ]  63 -> [ 20@0 ]  ].
6 | network_0/router_level2_3/vc_allocator | Input grants = [ 4 -> 36  8 -> 52  16 -> 40  20 -> 60  28 -> 48  ], output grants = [ 36 -> 4  40 -> 16  48 -> 28  52 -> 8  60 -> 20  ].
6 | network_0/router_level2_3 | Assigning VC 0 at output 9 to VC 0 at input 1.
6 | network_0/router_level2_3 | Completed VC allocation for VC 0 at input 1 (front: 4).
6 | network_0/router_level2_3 |   Acquiring assigned VC 0 at output 9.
6 | network_0/router_level2_3/buf_1/vc_0 | Changing state from vc_alloc to active.
6 | network_0/router_level2_4 | Adding flit 5 to VC 0 at input 1 (state: idle, empty).
6 | network_0/router_level2_4 | Using precomputed lookahead routing information for VC 0 at input 1 (front: 5).
6 | network_0/router_level2_4/buf_1/vc_0 | Changing state from idle to vc_alloc.
6 | network_0/router_level2_4 | Beginning VC allocation for VC 0 at input 1 (front: 5).
6 | network_0/router_level2_4 |   Requesting VC 0 at output 8 (in_pri: 0, out_pri: 0).
6 | network_0/router_level2_4 |   Requesting VC 1 at output 8 (in_pri: 0, out_pri: 0).
6 | network_0/router_level2_4 |   Requesting VC 2 at output 8 (in_pri: 0, out_pri: 0).
6 | network_0/router_level2_4 |   Requesting VC 3 at output 8 (in_pri: 0, out_pri: 0).
6 | network_0/router_level2_4/vc_allocator | Input requests = [ 0 -> [ 44@0 45@0 46@0 47@0 ]  4 -> [ 32@0 33@0 34@0 35@0 ]  20 -> [ 40@0 41@0 42@0 43@0 ]  ], output requests = [ 32 -> [ 4@0 ]  33 -> [ 4@0 ]  34 -> [ 4@0 ]  35 -> [ 4@0 ]  40 -> [ 20@0 ]  41 -> [ 20@0 ]  42 -> [ 20@0 ]  43 -> [ 20@0 ]  44 -> [ 0@0 ]  45 -> [ 0@0 ]  46 -> [ 0@0 ]  47 -> [ 0@0 ]  ].
6 | network_0/router_level2_4/vc_allocator | Input grants = [ 0 -> 44  4 -> 32  20 -> 40  ], output grants = [ 32 -> 4  40 -> 20  44 -> 0  ].
6 | network_0/router_level2_4 | Assigning VC 0 at output 8 to VC 0 at input 1.
6 | network_0/router_level2_4 | Completed VC allocation for VC 0 at input 1 (front: 5).
6 | network_0/router_level2_4 |   Acquiring assigned VC 0 at output 8.
6 | network_0/router_level2_4/buf_1/vc_0 | Changing state from vc_alloc to active.
6 | network_0/router_level2_5 | Adding flit 1 to VC 0 at input 0 (state: idle, empty).
6 | network_0/router_level2_5 | Using precomputed lookahead routing information for VC 0 at input 0 (front: 1).
6 | network_0/router_level2_5/buf_0/vc_0 | Changing state from idle to vc_alloc.
6 | network_0/router_level2_5 | Adding flit 6 to VC 0 at input 1 (state: idle, empty).
6 | network_0/router_level2_5 | Using precomputed lookahead routing information for VC 0 at input 1 (front: 6).
6 | network_0/router_level2_5/buf_1/vc_0 | Changing state from idle to vc_alloc.
6 | network_0/router_level2_5 | Adding flit 10 to VC 0 at input 2 (state: idle, empty).
6 | network_0/router_level2_5 | Using precomputed lookahead routing information for VC 0 at input 2 (front: 10).
6 | network_0/router_level2_5/buf_2/vc_0 | Changing state from idle to vc_alloc.
6 | network_0/router_level2_5 | Beginning VC allocation for VC 0 at input 0 (front: 1).
6 | network_0/router_level2_5 |   Requesting VC 0 at output 8 (in_pri: 0, out_pri: 0).
6 | network_0/router_level2_5 |   Requesting VC 1 at output 8 (in_pri: 0, out_pri: 0).
6 | network_0/router_level2_5 |   Requesting VC 2 at output 8 (in_pri: 0, out_pri: 0).
6 | network_0/router_level2_5 |   Requesting VC 3 at output 8 (in_pri: 0, out_pri: 0).
6 | network_0/router_level2_5 | Beginning VC allocation for VC 0 at input 1 (front: 6).
6 | network_0/router_level2_5 |   Requesting VC 0 at output 8 (in_pri: 0, out_pri: 0).
6 | network_0/router_level2_5 |   Requesting VC 1 at output 8 (in_pri: 0, out_pri: 0).
6 | network_0/router_level2_5 |   Requesting VC 2 at output 8 (in_pri: 0, out_pri: 0).
6 | network_0/router_level2_5 |   Requesting VC 3 at output 8 (in_pri: 0, out_pri: 0).
6 | network_0/router_level2_5 | Beginning VC allocation for VC 0 at input 2 (front: 10).
6 | network_0/router_level2_5 |   Requesting VC 0 at output 12 (in_pri: 0, out_pri: 0).
6 | network_0/router_level2_5 |   Requesting VC 1 at output 12 (in_pri: 0, out_pri: 0).
6 | network_0/router_level2_5 |   Requesting VC 2 at output 12 (in_pri: 0, out_pri: 0).
6 | network_0/router_level2_5 |   Requesting VC 3 at output 12 (in_pri: 0, out_pri: 0).
6 | network_0/router_level2_5/vc_allocator | Input requests = [ 0 -> [ 32@0 33@0 34@0 35@0 ]  4 -> [ 32@0 33@0 34@0 35@0 ]  8 -> [ 48@0 49@0 50@0 51@0 ]  24 -> [ 60@0 61@0 62@0 63@0 ]  28 -> [ 36@0 37@0 38@0 39@0 ]  ], output requests = [ 32 -> [ 0@0 4@0 ]  33 -> [ 0@0 4@0 ]  34 -> [ 0@0 4@0 ]  35 -> [ 0@0 4@0 ]  36 -> [ 28@0 ]  37 -> [ 28@0 ]  38 -> [ 28@0 ]  39 -> [ 28@0 ]  48 -> [ 8@0 ]  49 -> [ 8@0 ]  50 -> [ 8@0 ]  51 -> [ 8@0 ]  60 -> [ 24@0 ]  61 -> [ 24@0 ]  62 -> [ 24@0 ]  63 -> [ 24@0 ]  ].
6 | network_0/router_level2_5/vc_allocator | Input grants = [ 0 -> 32  8 -> 48  24 -> 60  28 -> 36  ], output grants = [ 32 -> 0  36 -> 28  48 -> 8  60 -> 24  ].
6 | network_0/router_level2_5 | Assigning VC 0 at output 8 to VC 0 at input 0.
6 | network_0/router_level2_5 | VC allocation failed for VC 0 at input 1.
6 | network_0/router_level2_5 | Assigning VC 0 at output 12 to VC 0 at input 2.
6 | network_0/router_level2_5 | Completed VC allocation for VC 0 at input 0 (front: 1).
6 | network_0/router_level2_5 |   Acquiring assigned VC 0 at output 8.
6 | network_0/router_level2_5/buf_0/vc_0 | Changing state from vc_alloc to active.
6 | network_0/router_level2_5 | Completed VC allocation for VC 0 at input 1 (front: 6).
6 | network_0/router_level2_5 |   No output VC allocated.
6 | network_0/router_level2_5 | Completed VC allocation for VC 0 at input 2 (front: 10).
6 | network_0/router_level2_5 |   Acquiring assigned VC 0 at output 12.
6 | network_0/router_level2_5/buf_2/vc_0 | Changing state from vc_alloc to active.
6 | network_0/router_level2_6 | Adding flit 2 to VC 0 at input 0 (state: idle, empty).
6 | network_0/router_level2_6 | Using precomputed lookahead routing information for VC 0 at input 0 (front: 2).
6 | network_0/router_level2_6/buf_0/vc_0 | Changing state from idle to vc_alloc.
6 | network_0/router_level2_6 | Adding flit 3 to VC 0 at input 1 (state: idle, empty).
6 | network_0/router_level2_6 | Using precomputed lookahead routing information for VC 0 at input 1 (front: 3).
6 | network_0/router_level2_6/buf_1/vc_0 | Changing state from idle to vc_alloc.
6 | network_0/router_level2_6 | Beginning VC allocation for VC 0 at input 0 (front: 2).
6 | network_0/router_level2_6 |   Requesting VC 0 at output 10 (in_pri: 0, out_pri: 0).
6 | network_0/router_level2_6 |   Requesting VC 1 at output 10 (in_pri: 0, out_pri: 0).
6 | network_0/router_level2_6 |   Requesting VC 2 at output 10 (in_pri: 0, out_pri: 0).
6 | network_0/router_level2_6 |   Requesting VC 3 at output 10 (in_pri: 0, out_pri: 0).
6 | network_0/router_level2_6 | Beginning VC allocation for VC 0 at input 1 (front: 3).
6 | network_0/router_level2_6 |   Requesting VC 0 at output 13 (in_pri: 0, out_pri: 0).
6 | network_0/router_level2_6 |   Requesting VC 1 at output 13 (in_pri: 0, out_pri: 0).
6 | network_0/router_level2_6 |   Requesting VC 2 at output 13 (in_pri: 0, out_pri: 0).
6 | network_0/router_level2_6 |   Requesting VC 3 at output 13 (in_pri: 0, out_pri: 0).
6 | network_0/router_level2_6/vc_allocator | Input requests = [ 0 -> [ 40@0 41@0 42@0 43@0 ]  4 -> [ 52@0 53@0 54@0 55@0 ]  8 -> [ 40@0 41@0 42@0 43@0 ]  12 -> [ 36@0 37@0 38@0 39@0 ]  20 -> [ 32@0 33@0 34@0 35@0 ]  24 -> [ 32@0 33@0 34@0 35@0 ]  ], output requests = [ 32 -> [ 20@0 24@0 ]  33 -> [ 20@0 24@0 ]  34 -> [ 20@0 24@0 ]  35 -> [ 20@0 24@0 ]  36 -> [ 12@0 ]  37 -> [ 12@0 ]  38 -> [ 12@0 ]  39 -> [ 12@0 ]  40 -> [ 0@0 8@0 ]  41 -> [ 0@0 8@0 ]  42 -> [ 0@0 8@0 ]  43 -> [ 0@0 8@0 ]  52 -> [ 4@0 ]  53 -> [ 4@0 ]  54 -> [ 4@0 ]  55 -> [ 4@0 ]  ].
6 | network_0/router_level2_6/vc_allocator | Input grants = [ 0 -> 40  4 -> 52  12 -> 36  20 -> 32  ], output grants = [ 32 -> 20  36 -> 12  40 -> 0  52 -> 4  ].
6 | network_0/router_level2_6 | Assigning VC 0 at output 10 to VC 0 at input 0.
6 | network_0/router_level2_6 | Assigning VC 0 at output 13 to VC 0 at input 1.
6 | network_0/router_level2_6 | Completed VC allocation for VC 0 at input 0 (front: 2).
6 | network_0/router_level2_6 |   Acquiring assigned VC 0 at output 10.
6 | network_0/router_level2_6/buf_0/vc_0 | Changing state from vc_alloc to active.
6 | network_0/router_level2_6 | Completed VC allocation for VC 0 at input 1 (front: 3).
6 | network_0/router_level2_6 |   Acquiring assigned VC 0 at output 13.
6 | network_0/router_level2_6/buf_1/vc_0 | Changing state from vc_alloc to active.
6 | network_0/network_0_fchan_20491 | Completed channel traversal for flit 7.
7 | network_0/router_level2_3 | Received flit 7 from channel at input 1.
7 | network_0/router_level2_0 | Beginning switch allocation for VC 0 at input 1 (front: 8).
7 | network_0/router_level2_0 |   Requesting output 10.0 (non-spec, pri: 0).
7 | network_0/router_level2_0/sw_allocator | Input requests = [ 1 -> [ 10@0 ]  2 -> [ 14@0 ]  4 -> [ 11@0 ]  5 -> [ 13@0 ]  6 -> [ 12@0 ]  ], output requests = [ 10 -> [ 1@0 ]  11 -> [ 4@0 ]  12 -> [ 6@0 ]  13 -> [ 5@0 ]  14 -> [ 2@0 ]  ].
7 | network_0/router_level2_0/sw_allocator | Input grants = [ 1 -> 10  2 -> 14  4 -> 11  5 -> 13  6 -> 12  ], output grants = [ 10 -> 1  11 -> 4  12 -> 6  13 -> 5  14 -> 2  ].
7 | network_0/router_level2_0 | Assigning output 10.0 to VC 0 at input 1.0.
7 | network_0/router_level2_0 | Completed switch allocation for VC 0 at input 1 (front: 8).
7 | network_0/router_level2_0 |   Scheduling switch connection from input 1.0 to output 10.0.
7 | network_0/router_level2_0 | Updating lookahead routing information for flit 8.
7 | network_0/router_level2_2 | Beginning switch allocation for VC 0 at input 1 (front: 9).
7 | network_0/router_level2_2 |   Requesting output 10.0 (non-spec, pri: 0).
7 | network_0/router_level2_2/sw_allocator | Input requests = [ 1 -> [ 10@0 ]  4 -> [ 14@0 ]  ], output requests = [ 10 -> [ 1@0 ]  14 -> [ 4@0 ]  ].
7 | network_0/router_level2_2/sw_allocator | Input grants = [ 1 -> 10  4 -> 14  ], output grants = [ 10 -> 1  14 -> 4  ].
7 | network_0/router_level2_2 | Assigning output 10.0 to VC 0 at input 1.0.
7 | network_0/router_level2_2 | Completed switch allocation for VC 0 at input 1 (front: 9).
7 | network_0/router_level2_2 |   Scheduling switch connection from input 1.0 to output 10.0.
7 | network_0/router_level2_2 | Updating lookahead routing information for flit 9.
7 | network_0/router_level2_3 | Adding flit 7 to VC 1 at input 1 (state: idle, empty).
7 | network_0/router_level2_3 | Using precomputed lookahead routing information for VC 1 at input 1 (front: 7).
7 | network_0/router_level2_3/buf_1/vc_1 | Changing state from idle to vc_alloc.
7 | network_0/router_level2_3 | Beginning VC allocation for VC 1 at input 1 (front: 7).
7 | network_0/router_level2_3 |   Requesting VC 0 at output 14 (in_pri: 0, out_pri: 0).
7 | network_0/router_level2_3 |   Requesting VC 1 at output 14 (in_pri: 0, out_pri: 0).
7 | network_0/router_level2_3 |   Requesting VC 2 at output 14 (in_pri: 0, out_pri: 0).
7 | network_0/router_level2_3 |   Requesting VC 3 at output 14 (in_pri: 0, out_pri: 0).
7 | network_0/router_level2_3/vc_allocator | Input requests = [ 5 -> [ 56@0 57@0 58@0 59@0 ]  9 -> [ 61@0 62@0 63@0 ]  21 -> [ 37@0 38@0 39@0 ]  24 -> [ 49@0 50@0 51@0 ]  29 -> [ 56@0 57@0 58@0 59@0 ]  ], output requests = [ 37 -> [ 21@0 ]  38 -> [ 21@0 ]  39 -> [ 21@0 ]  49 -> [ 24@0 ]  50 -> [ 24@0 ]  51 -> [ 24@0 ]  56 -> [ 5@0 29@0 ]  57 -> [ 5@0 29@0 ]  58 -> [ 5@0 29@0 ]  59 -> [ 5@0 29@0 ]  61 -> [ 9@0 ]  62 -> [ 9@0 ]  63 -> [ 9@0 ]  ].
7 | network_0/router_level2_3/vc_allocator | Input grants = [ 5 -> 56  9 -> 61  21 -> 37  24 -> 49  ], output grants = [ 37 -> 21  49 -> 24  56 -> 5  61 -> 9  ].
7 | network_0/router_level2_3 | Assigning VC 0 at output 14 to VC 1 at input 1.
7 | network_0/router_level2_3 | Beginning switch allocation for VC 0 at input 1 (front: 4).
7 | network_0/router_level2_3 |   Requesting output 9.0 (non-spec, pri: 0).
7 | network_0/router_level2_3/sw_allocator | Input requests = [ 1 -> [ 9@0 ]  2 -> [ 13@0 ]  4 -> [ 10@0 ]  5 -> [ 15@0 ]  7 -> [ 12@0 ]  ], output requests = [ 9 -> [ 1@0 ]  10 -> [ 4@0 ]  12 -> [ 7@0 ]  13 -> [ 2@0 ]  15 -> [ 5@0 ]  ].
7 | network_0/router_level2_3/sw_allocator | Input grants = [ 1 -> 9  2 -> 13  4 -> 10  5 -> 15  7 -> 12  ], output grants = [ 9 -> 1  10 -> 4  12 -> 7  13 -> 2  15 -> 5  ].
7 | network_0/router_level2_3 | Assigning output 9.0 to VC 0 at input 1.0.
7 | network_0/router_level2_3 | Completed VC allocation for VC 1 at input 1 (front: 7).
7 | network_0/router_level2_3 |   Acquiring assigned VC 0 at output 14.
7 | network_0/router_level2_3/buf_1/vc_1 | Changing state from vc_alloc to active.
7 | network_0/router_level2_3 | Completed switch allocation for VC 0 at input 1 (front: 4).
7 | network_0/router_level2_3 |   Scheduling switch connection from input 1.0 to output 9.0.
7 | network_0/router_level2_3 | Updating lookahead routing information for flit 4.
7 | network_0/router_level2_4 | Beginning switch allocation for VC 0 at input 1 (front: 5).
7 | network_0/router_level2_4 |   Requesting output 8.0 (non-spec, pri: 0).
7 | network_0/router_level2_4/sw_allocator | Input requests = [ 0 -> [ 11@0 ]  1 -> [ 8@0 ]  5 -> [ 10@0 ]  ], output requests = [ 8 -> [ 1@0 ]  10 -> [ 5@0 ]  11 -> [ 0@0 ]  ].
7 | network_0/router_level2_4/sw_allocator | Input grants = [ 0 -> 11  1 -> 8  5 -> 10  ], output grants = [ 8 -> 1  10 -> 5  11 -> 0  ].
7 | network_0/router_level2_4 | Assigning output 8.0 to VC 0 at input 1.0.
7 | network_0/router_level2_4 | Completed switch allocation for VC 0 at input 1 (front: 5).
7 | network_0/router_level2_4 |   Scheduling switch connection from input 1.0 to output 8.0.
7 | network_0/router_level2_4 | Updating lookahead routing information for flit 5.
7 | network_0/router_level2_5 | Beginning VC allocation for VC 0 at input 1 (front: 6).
7 | network_0/router_level2_5 |   VC 0 at output 8 is in use by VC 0 at input 0 (front flit: 1).
7 | network_0/router_level2_5 |   Requesting VC 1 at output 8 (in_pri: 0, out_pri: 0).
7 | network_0/router_level2_5 |   Requesting VC 2 at output 8 (in_pri: 0, out_pri: 0).
7 | network_0/router_level2_5 |   Requesting VC 3 at output 8 (in_pri: 0, out_pri: 0).
7 | network_0/router_level2_5/vc_allocator | Input requests = [ 1 -> [ 40@0 41@0 42@0 43@0 ]  4 -> [ 33@0 34@0 35@0 ]  12 -> [ 44@0 45@0 46@0 47@0 ]  16 -> [ 61@0 62@0 63@0 ]  29 -> [ 49@0 50@0 51@0 ]  ], output requests = [ 33 -> [ 4@0 ]  34 -> [ 4@0 ]  35 -> [ 4@0 ]  40 -> [ 1@0 ]  41 -> [ 1@0 ]  42 -> [ 1@0 ]  43 -> [ 1@0 ]  44 -> [ 12@0 ]  45 -> [ 12@0 ]  46 -> [ 12@0 ]  47 -> [ 12@0 ]  49 -> [ 29@0 ]  50 -> [ 29@0 ]  51 -> [ 29@0 ]  61 -> [ 16@0 ]  62 -> [ 16@0 ]  63 -> [ 16@0 ]  ].
7 | network_0/router_level2_5/vc_allocator | Input grants = [ 1 -> 40  4 -> 33  12 -> 44  16 -> 61  29 -> 49  ], output grants = [ 33 -> 4  40 -> 1  44 -> 12  49 -> 29  61 -> 16  ].
7 | network_0/router_level2_5 | Assigning VC 1 at output 8 to VC 0 at input 1.
7 | network_0/router_level2_5 | Beginning switch allocation for VC 0 at input 0 (front: 1).
7 | network_0/router_level2_5 |   Requesting output 8.0 (non-spec, pri: 0).
7 | network_0/router_level2_5 | Beginning switch allocation for VC 0 at input 2 (front: 10).
7 | network_0/router_level2_5 |   Requesting output 12.0 (non-spec, pri: 0).
7 | network_0/router_level2_5/sw_allocator | Input requests = [ 0 -> [ 8@0 ]  2 -> [ 12@0 ]  6 -> [ 15@0 ]  7 -> [ 9@0 ]  ], output requests = [ 8 -> [ 0@0 ]  9 -> [ 7@0 ]  12 -> [ 2@0 ]  15 -> [ 6@0 ]  ].
7 | network_0/router_level2_5/sw_allocator | Input grants = [ 0 -> 8  2 -> 12  6 -> 15  7 -> 9  ], output grants = [ 8 -> 0  9 -> 7  12 -> 2  15 -> 6  ].
7 | network_0/router_level2_5 | Assigning output 8.0 to VC 0 at input 0.0.
7 | network_0/router_level2_5 | Assigning output 12.0 to VC 0 at input 2.0.
7 | network_0/router_level2_5 | Completed VC allocation for VC 0 at input 1 (front: 6).
7 | network_0/router_level2_5 |   Acquiring assigned VC 1 at output 8.
7 | network_0/router_level2_5/buf_1/vc_0 | Changing state from vc_alloc to active.
7 | network_0/router_level2_5 | Completed switch allocation for VC 0 at input 0 (front: 1).
7 | network_0/router_level2_5 |   Scheduling switch connection from input 0.0 to output 8.0.
7 | network_0/router_level2_5 | Updating lookahead routing information for flit 1.
7 | network_0/router_level2_5 | Completed switch allocation for VC 0 at input 2 (front: 10).
7 | network_0/router_level2_5 |   Scheduling switch connection from input 2.0 to output 12.0.
7 | network_0/router_level2_5 | Updating lookahead routing information for flit 10.
7 | network_0/router_level2_6 | Beginning switch allocation for VC 0 at input 0 (front: 2).
7 | network_0/router_level2_6 |   Requesting output 10.0 (non-spec, pri: 0).
7 | network_0/router_level2_6 | Beginning switch allocation for VC 0 at input 1 (front: 3).
7 | network_0/router_level2_6 |   Requesting output 13.0 (non-spec, pri: 0).
7 | network_0/router_level2_6/sw_allocator | Input requests = [ 0 -> [ 10@0 ]  1 -> [ 13@0 ]  3 -> [ 9@0 ]  5 -> [ 8@0 ]  ], output requests = [ 8 -> [ 5@0 ]  9 -> [ 3@0 ]  10 -> [ 0@0 ]  13 -> [ 1@0 ]  ].
7 | network_0/router_level2_6/sw_allocator | Input grants = [ 0 -> 10  1 -> 13  3 -> 9  5 -> 8  ], output grants = [ 8 -> 5  9 -> 3  10 -> 0  13 -> 1  ].
7 | network_0/router_level2_6 | Assigning output 10.0 to VC 0 at input 0.0.
7 | network_0/router_level2_6 | Assigning output 13.0 to VC 0 at input 1.0.
7 | network_0/router_level2_6 | Completed switch allocation for VC 0 at input 0 (front: 2).
7 | network_0/router_level2_6 |   Scheduling switch connection from input 0.0 to output 10.0.
7 | network_0/router_level2_6 | Updating lookahead routing information for flit 2.
7 | network_0/router_level2_6 | Completed switch allocation for VC 0 at input 1 (front: 3).
7 | network_0/router_level2_6 |   Scheduling switch connection from input 1.0 to output 13.0.
7 | network_0/router_level2_6 | Updating lookahead routing information for flit 3.
8 | network_0/router_level2_0 | Beginning crossbar traversal for flit 8 from input 1.0 to output 10.0.
8 | network_0/router_level2_0 | Completed crossbar traversal for flit 8 from input 1.0 to output 10.0.
8 | network_0/router_level2_0 | Buffering flit 8 at output 10.
8 | network_0/router_level2_2 | Beginning crossbar traversal for flit 9 from input 1.0 to output 10.0.
8 | network_0/router_level2_2 | Completed crossbar traversal for flit 9 from input 1.0 to output 10.0.
8 | network_0/router_level2_2 | Buffering flit 9 at output 10.
8 | network_0/router_level2_3 | Beginning switch allocation for VC 1 at input 1 (front: 7).
8 | network_0/router_level2_3 |   Requesting output 14.0 (non-spec, pri: 0).
8 | network_0/router_level2_3/sw_allocator | Input requests = [ 1 -> [ 14@0 ]  2 -> [ 15@0 ]  5 -> [ 9@0 ]  6 -> [ 12@0 ]  ], output requests = [ 9 -> [ 5@0 ]  12 -> [ 6@0 ]  14 -> [ 1@0 ]  15 -> [ 2@0 ]  ].
8 | network_0/router_level2_3/sw_allocator | Input grants = [ 1 -> 14  2 -> 15  5 -> 9  6 -> 12  ], output grants = [ 9 -> 5  12 -> 6  14 -> 1  15 -> 2  ].
8 | network_0/router_level2_3 | Assigning output 14.0 to VC 1 at input 1.0.
8 | network_0/router_level2_3 | Beginning crossbar traversal for flit 4 from input 1.0 to output 9.0.
8 | network_0/router_level2_3 | Completed switch allocation for VC 1 at input 1 (front: 7).
8 | network_0/router_level2_3 |   Scheduling switch connection from input 1.0 to output 14.0.
8 | network_0/router_level2_3 | Updating lookahead routing information for flit 7.
8 | network_0/router_level2_3 | Completed crossbar traversal for flit 4 from input 1.0 to output 9.0.
8 | network_0/router_level2_3 | Buffering flit 4 at output 9.
8 | network_0/router_level2_4 | Beginning crossbar traversal for flit 5 from input 1.0 to output 8.0.
8 | network_0/router_level2_4 | Completed crossbar traversal for flit 5 from input 1.0 to output 8.0.
8 | network_0/router_level2_4 | Buffering flit 5 at output 8.
8 | network_0/router_level2_5 | Beginning switch allocation for VC 0 at input 1 (front: 6).
8 | network_0/router_level2_5 |   Requesting output 8.0 (non-spec, pri: 0).
8 | network_0/router_level2_5/sw_allocator | Input requests = [ 0 -> [ 10@0 ]  1 -> [ 8@0 ]  3 -> [ 11@0 ]  4 -> [ 15@0 ]  7 -> [ 12@0 ]  ], output requests = [ 8 -> [ 1@0 ]  10 -> [ 0@0 ]  11 -> [ 3@0 ]  12 -> [ 7@0 ]  15 -> [ 4@0 ]  ].
8 | network_0/router_level2_5/sw_allocator | Input grants = [ 0 -> 10  1 -> 8  3 -> 11  4 -> 15  7 -> 12  ], output grants = [ 8 -> 1  10 -> 0  11 -> 3  12 -> 7  15 -> 4  ].
8 | network_0/router_level2_5 | Assigning output 8.0 to VC 0 at input 1.0.
8 | network_0/router_level2_5 | Beginning crossbar traversal for flit 1 from input 0.0 to output 8.0.
8 | network_0/router_level2_5 | Beginning crossbar traversal for flit 10 from input 2.0 to output 12.0.
8 | network_0/router_level2_5 | Completed switch allocation for VC 0 at input 1 (front: 6).
8 | network_0/router_level2_5 |   Scheduling switch connection from input 1.0 to output 8.0.
8 | network_0/router_level2_5 | Updating lookahead routing information for flit 6.
8 | network_0/router_level2_5 | Completed crossbar traversal for flit 1 from input 0.0 to output 8.0.
8 | network_0/router_level2_5 | Buffering flit 1 at output 8.
8 | network_0/router_level2_5 | Completed crossbar traversal for flit 10 from input 2.0 to output 12.0.
8 | network_0/router_level2_5 | Buffering flit 10 at output 12.
8 | network_0/router_level2_6 | Beginning crossbar traversal for flit 2 from input 0.0 to output 10.0.
8 | network_0/router_level2_6 | Beginning crossbar traversal for flit 3 from input 1.0 to output 13.0.
8 | network_0/router_level2_6 | Completed crossbar traversal for flit 2 from input 0.0 to output 10.0.
8 | network_0/router_level2_6 | Buffering flit 2 at output 10.
8 | network_0/router_level2_6 | Completed crossbar traversal for flit 3 from input 1.0 to output 13.0.
8 | network_0/router_level2_6 | Buffering flit 3 at output 13.
8 | network_0/router_level2_0 | Sending flit 8 to channel at output 10.
8 | network_0/router_level2_2 | Sending flit 9 to channel at output 10.
8 | network_0/router_level2_3 | Sending flit 4 to channel at output 9.
8 | network_0/router_level2_4 | Sending flit 5 to channel at output 8.
8 | network_0/router_level2_5 | Sending flit 1 to channel at output 8.
8 | network_0/router_level2_5 | Sending flit 10 to channel at output 12.
8 | network_0/router_level2_6 | Sending flit 2 to channel at output 10.
8 | network_0/router_level2_6 | Sending flit 3 to channel at output 13.
9 | network_0/network_0_fchan_12290 | Beginning channel traversal for flit 8 with delay 1.
9 | network_0/network_0_fchan_12306 | Beginning channel traversal for flit 9 with delay 1.
9 | network_0/network_0_fchan_12313 | Beginning channel traversal for flit 4 with delay 1.
9 | network_0/network_0_fchan_12320 | Beginning channel traversal for flit 5 with delay 1.
9 | network_0/network_0_fchan_12328 | Beginning channel traversal for flit 1 with delay 1.
9 | network_0/network_0_fchan_12332 | Beginning channel traversal for flit 10 with delay 1.
9 | network_0/network_0_fchan_12338 | Beginning channel traversal for flit 2 with delay 1.
9 | network_0/network_0_fchan_12341 | Beginning channel traversal for flit 3 with delay 1.
9 | network_0/router_level2_3 | Beginning crossbar traversal for flit 7 from input 1.0 to output 14.0.
9 | network_0/router_level2_3 | Completed crossbar traversal for flit 7 from input 1.0 to output 14.0.
9 | network_0/router_level2_3 | Buffering flit 7 at output 14.
9 | network_0/router_level2_5 | Beginning crossbar traversal for flit 6 from input 1.0 to output 8.0.
9 | network_0/router_level2_5 | Completed crossbar traversal for flit 6 from input 1.0 to output 8.0.
9 | network_0/router_level2_5 | Buffering flit 6 at output 8.
9 | network_0/network_0_fchan_12290 | Completed channel traversal for flit 8.
9 | network_0/network_0_fchan_12306 | Completed channel traversal for flit 9.
9 | network_0/network_0_fchan_12313 | Completed channel traversal for flit 4.
9 | network_0/network_0_fchan_12320 | Completed channel traversal for flit 5.
9 | network_0/network_0_fchan_12328 | Completed channel traversal for flit 1.
9 | network_0/network_0_fchan_12332 | Completed channel traversal for flit 10.
9 | network_0/network_0_fchan_12338 | Completed channel traversal for flit 2.
9 | network_0/network_0_fchan_12341 | Completed channel traversal for flit 3.
9 | network_0/router_level2_3 | Sending flit 7 to channel at output 14.
9 | network_0/router_level2_5 | Sending flit 6 to channel at output 8.
10 | network_0/network_0_fchan_12318 | Beginning channel traversal for flit 7 with delay 1.
10 | network_0/network_0_fchan_12328 | Beginning channel traversal for flit 6 with delay 1.
10 | network_0/router_level1_4 | Received flit 5 from channel at input 0.
10 | network_0/router_level1_5 | Received flit 1 from channel at input 0.
10 | network_0/router_level1_11 | Received flit 4 from channel at input 0.
10 | network_0/router_level1_16 | Received flit 8 from channel at input 0.
10 | network_0/router_level1_18 | Received flit 9 from channel at input 0.
10 | network_0/router_level1_22 | Received flit 2 from channel at input 0.
10 | network_0/router_level1_37 | Received flit 10 from channel at input 0.
10 | network_0/router_level1_46 | Received flit 3 from channel at input 0.
10 | network_0/router_level1_4 | Adding flit 5 to VC 0 at input 0 (state: idle, empty).
10 | network_0/router_level1_4 | Using precomputed lookahead routing information for VC 0 at input 0 (front: 5).
10 | network_0/router_level1_4/buf_0/vc_0 | Changing state from idle to vc_alloc.
10 | network_0/router_level1_4 | Beginning VC allocation for VC 0 at input 0 (front: 5).
10 | network_0/router_level1_4 |   Requesting VC 0 at output 9 (in_pri: 0, out_pri: 0).
10 | network_0/router_level1_4 |   Requesting VC 1 at output 9 (in_pri: 0, out_pri: 0).
10 | network_0/router_level1_4 |   Requesting VC 2 at output 9 (in_pri: 0, out_pri: 0).
10 | network_0/router_level1_4 |   Requesting VC 3 at output 9 (in_pri: 0, out_pri: 0).
10 | network_0/router_level1_4/vc_allocator | Input requests = [ 0 -> [ 36@0 37@0 38@0 39@0 ]  20 -> [ 32@0 33@0 34@0 35@0 ]  ], output requests = [ 32 -> [ 20@0 ]  33 -> [ 20@0 ]  34 -> [ 20@0 ]  35 -> [ 20@0 ]  36 -> [ 0@0 ]  37 -> [ 0@0 ]  38 -> [ 0@0 ]  39 -> [ 0@0 ]  ].
10 | network_0/router_level1_4/vc_allocator | Input grants = [ 0 -> 36  20 -> 32  ], output grants = [ 32 -> 20  36 -> 0  ].
10 | network_0/router_level1_4 | Assigning VC 0 at output 9 to VC 0 at input 0.
10 | network_0/router_level1_4 | Completed VC allocation for VC 0 at input 0 (front: 5).
10 | network_0/router_level1_4 |   Acquiring assigned VC 0 at output 9.
10 | network_0/router_level1_4/buf_0/vc_0 | Changing state from vc_alloc to active.
10 | network_0/router_level1_5 | Adding flit 1 to VC 0 at input 0 (state: idle, empty).
10 | network_0/router_level1_5 | Using precomputed lookahead routing information for VC 0 at input 0 (front: 1).
10 | network_0/router_level1_5/buf_0/vc_0 | Changing state from idle to vc_alloc.
10 | network_0/router_level1_5 | Beginning VC allocation for VC 0 at input 0 (front: 1).
10 | network_0/router_level1_5 |   Requesting VC 0 at output 8 (in_pri: 0, out_pri: 0).
10 | network_0/router_level1_5 |   Requesting VC 1 at output 8 (in_pri: 0, out_pri: 0).
10 | network_0/router_level1_5 |   Requesting VC 2 at output 8 (in_pri: 0, out_pri: 0).
10 | network_0/router_level1_5 |   Requesting VC 3 at output 8 (in_pri: 0, out_pri: 0).
10 | network_0/router_level1_5/vc_allocator | Input requests = [ 0 -> [ 32@0 33@0 34@0 35@0 ]  12 -> [ 32@0 33@0 34@0 35@0 ]  20 -> [ 36@0 37@0 38@0 39@0 ]  28 -> [ 36@0 37@0 38@0 39@0 ]  ], output requests = [ 32 -> [ 0@0 12@0 ]  33 -> [ 0@0 12@0 ]  34 -> [ 0@0 12@0 ]  35 -> [ 0@0 12@0 ]  36 -> [ 20@0 28@0 ]  37 -> [ 20@0 28@0 ]  38 -> [ 20@0 28@0 ]  39 -> [ 20@0 28@0 ]  ].
10 | network_0/router_level1_5/vc_allocator | Input grants = [ 0 -> 32  20 -> 36  ], output grants = [ 32 -> 0  36 -> 20  ].
10 | network_0/router_level1_5 | Assigning VC 0 at output 8 to VC 0 at input 0.
10 | network_0/router_level1_5 | Completed VC allocation for VC 0 at input 0 (front: 1).
10 | network_0/router_level1_5 |   Acquiring assigned VC 0 at output 8.
10 | network_0/router_level1_5/buf_0/vc_0 | Changing state from vc_alloc to active.
10 | network_0/router_level1_11 | Adding flit 4 to VC 0 at input 0 (state: idle, empty).
10 | network_0/router_level1_11 | Using precomputed lookahead routing information for VC 0 at input 0 (front: 4).
10 | network_0/router_level1_11/buf_0/vc_0 | Changing state from idle to vc_alloc.
10 | network_0/router_level1_11 | Beginning VC allocation for VC 0 at input 0 (front: 4).
10 | network_0/router_level1_11 |   Requesting VC 0 at output 8 (in_pri: 0, out_pri: 0).
10 | network_0/router_level1_11 |   Requesting VC 1 at output 8 (in_pri: 0, out_pri: 0).
10 | network_0/router_level1_11 |   Requesting VC 2 at output 8 (in_pri: 0, out_pri: 0).
10 | network_0/router_level1_11 |   Requesting VC 3 at output 8 (in_pri: 0, out_pri: 0).
10 | network_0/router_level1_11/vc_allocator | Input requests = [ 0 -> [ 32@0 33@0 34@0 35@0 ]  12 -> [ 32@0 33@0 34@0 35@0 ]  24 -> [ 36@0 37@0 38@0 39@0 ]  ], output requests = [ 32 -> [ 0@0 12@0 ]  33 -> [ 0@0 12@0 ]  34 -> [ 0@0 12@0 ]  35 -> [ 0@0 12@0 ]  36 -> [ 24@0 ]  37 -> [ 24@0 ]  38 -> [ 24@0 ]  39 -> [ 24@0 ]  ].
10 | network_0/router_level1_11/vc_allocator | Input grants = [ 0 -> 32  24 -> 36  ], output grants = [ 32 -> 0  36 -> 24  ].
10 | network_0/router_level1_11 | Assigning VC 0 at output 8 to VC 0 at input 0.
10 | network_0/router_level1_11 | Completed VC allocation for VC 0 at input 0 (front: 4).
10 | network_0/router_level1_11 |   Acquiring assigned VC 0 at output 8.
10 | network_0/router_level1_11/buf_0/vc_0 | Changing state from vc_alloc to active.
10 | network_0/router_level1_16 | Adding flit 8 to VC 0 at input 0 (state: idle, empty).
10 | network_0/router_level1_16 | Using precomputed lookahead routing information for VC 0 at input 0 (front: 8).
10 | network_0/router_level1_16/buf_0/vc_0 | Changing state from idle to vc_alloc.
10 | network_0/router_level1_16 | Beginning VC allocation for VC 0 at input 0 (front: 8).
10 | network_0/router_level1_16 |   Requesting VC 0 at output 9 (in_pri: 0, out_pri: 0).
10 | network_0/router_level1_16 |   Requesting VC 1 at output 9 (in_pri: 0, out_pri: 0).
10 | network_0/router_level1_16 |   Requesting VC 2 at output 9 (in_pri: 0, out_pri: 0).
10 | network_0/router_level1_16 |   Requesting VC 3 at output 9 (in_pri: 0, out_pri: 0).
10 | network_0/router_level1_16/vc_allocator | Input requests = [ 0 -> [ 36@0 37@0 38@0 39@0 ]  16 -> [ 36@0 37@0 38@0 39@0 ]  ], output requests = [ 36 -> [ 0@0 16@0 ]  37 -> [ 0@0 16@0 ]  38 -> [ 0@0 16@0 ]  39 -> [ 0@0 16@0 ]  ].
10 | network_0/router_level1_16/vc_allocator | Input grants = [ 0 -> 36  ], output grants = [ 36 -> 0  ].
10 | network_0/router_level1_16 | Assigning VC 0 at output 9 to VC 0 at input 0.
10 | network_0/router_level1_16 | Completed VC allocation for VC 0 at input 0 (front: 8).
10 | network_0/router_level1_16 |   Acquiring assigned VC 0 at output 9.
10 | network_0/router_level1_16/buf_0/vc_0 | Changing state from vc_alloc to active.
10 | network_0/router_level1_18 | Adding flit 9 to VC 0 at input 0 (state: idle, empty).
10 | network_0/router_level1_18 | Using precomputed lookahead routing information for VC 0 at input 0 (front: 9).
10 | network_0/router_level1_18/buf_0/vc_0 | Changing state from idle to vc_alloc.
10 | network_0/router_level1_18 | Beginning VC allocation for VC 0 at input 0 (front: 9).
10 | network_0/router_level1_18 |   Requesting VC 0 at output 9 (in_pri: 0, out_pri: 0).
10 | network_0/router_level1_18 |   Requesting VC 1 at output 9 (in_pri: 0, out_pri: 0).
10 | network_0/router_level1_18 |   Requesting VC 2 at output 9 (in_pri: 0, out_pri: 0).
10 | network_0/router_level1_18 |   Requesting VC 3 at output 9 (in_pri: 0, out_pri: 0).
10 | network_0/router_level1_18/vc_allocator | Input requests = [ 0 -> [ 36@0 37@0 38@0 39@0 ]  4 -> [ 36@0 37@0 38@0 39@0 ]  8 -> [ 32@0 33@0 34@0 35@0 ]  12 -> [ 32@0 33@0 34@0 35@0 ]  20 -> [ 36@0 37@0 38@0 39@0 ]  24 -> [ 36@0 37@0 38@0 39@0 ]  28 -> [ 32@0 33@0 34@0 35@0 ]  ], output requests = [ 32 -> [ 8@0 12@0 28@0 ]  33 -> [ 8@0 12@0 28@0 ]  34 -> [ 8@0 12@0 28@0 ]  35 -> [ 8@0 12@0 28@0 ]  36 -> [ 0@0 4@0 20@0 24@0 ]  37 -> [ 0@0 4@0 20@0 24@0 ]  38 -> [ 0@0 4@0 20@0 24@0 ]  39 -> [ 0@0 4@0 20@0 24@0 ]  ].
10 | network_0/router_level1_18/vc_allocator | Input grants = [ 0 -> 36  8 -> 32  ], output grants = [ 32 -> 8  36 -> 0  ].
10 | network_0/router_level1_18 | Assigning VC 0 at output 9 to VC 0 at input 0.
10 | network_0/router_level1_18 | Completed VC allocation for VC 0 at input 0 (front: 9).
10 | network_0/router_level1_18 |   Acquiring assigned VC 0 at output 9.
10 | network_0/router_level1_18/buf_0/vc_0 | Changing state from vc_alloc to active.
10 | network_0/router_level1_22 | Adding flit 2 to VC 0 at input 0 (state: idle, empty).
10 | network_0/router_level1_22 | Using precomputed lookahead routing information for VC 0 at input 0 (front: 2).
10 | network_0/router_level1_22/buf_0/vc_0 | Changing state from idle to vc_alloc.
10 | network_0/router_level1_22 | Beginning VC allocation for VC 0 at input 0 (front: 2).
10 | network_0/router_level1_22 |   Requesting VC 0 at output 9 (in_pri: 0, out_pri: 0).
10 | network_0/router_level1_22 |   Requesting VC 1 at output 9 (in_pri: 0, out_pri: 0).
10 | network_0/router_level1_22 |   Requesting VC 2 at output 9 (in_pri: 0, out_pri: 0).
10 | network_0/router_level1_22 |   Requesting VC 3 at output 9 (in_pri: 0, out_pri: 0).
10 | network_0/router_level1_22/vc_allocator | Input requests = [ 0 -> [ 36@0 37@0 38@0 39@0 ]  12 -> [ 36@0 37@0 38@0 39@0 ]  ], output requests = [ 36 -> [ 0@0 12@0 ]  37 -> [ 0@0 12@0 ]  38 -> [ 0@0 12@0 ]  39 -> [ 0@0 12@0 ]  ].
10 | network_0/router_level1_22/vc_allocator | Input grants = [ 0 -> 36  ], output grants = [ 36 -> 0  ].
10 | network_0/router_level1_22 | Assigning VC 0 at output 9 to VC 0 at input 0.
10 | network_0/router_level1_22 | Completed VC allocation for VC 0 at input 0 (front: 2).
10 | network_0/router_level1_22 |   Acquiring assigned VC 0 at output 9.
10 | network_0/router_level1_22/buf_0/vc_0 | Changing state from vc_alloc to active.
10 | network_0/router_level1_37 | Adding flit 10 to VC 0 at input 0 (state: idle, empty).
10 | network_0/router_level1_37 | Using precomputed lookahead routing information for VC 0 at input 0 (front: 10).
10 | network_0/router_level1_37/buf_0/vc_0 | Changing state from idle to vc_alloc.
10 | network_0/router_level1_37 | Beginning VC allocation for VC 0 at input 0 (front: 10).
10 | network_0/router_level1_37 |   Requesting VC 0 at output 9 (in_pri: 0, out_pri: 0).
10 | network_0/router_level1_37 |   Requesting VC 1 at output 9 (in_pri: 0, out_pri: 0).
10 | network_0/router_level1_37 |   Requesting VC 2 at output 9 (in_pri: 0, out_pri: 0).
10 | network_0/router_level1_37 |   Requesting VC 3 at output 9 (in_pri: 0, out_pri: 0).
10 | network_0/router_level1_37/vc_allocator | Input requests = [ 0 -> [ 36@0 37@0 38@0 39@0 ]  8 -> [ 32@0 33@0 34@0 35@0 ]  28 -> [ 36@0 37@0 38@0 39@0 ]  ], output requests = [ 32 -> [ 8@0 ]  33 -> [ 8@0 ]  34 -> [ 8@0 ]  35 -> [ 8@0 ]  36 -> [ 0@0 28@0 ]  37 -> [ 0@0 28@0 ]  38 -> [ 0@0 28@0 ]  39 -> [ 0@0 28@0 ]  ].
10 | network_0/router_level1_37/vc_allocator | Input grants = [ 0 -> 36  8 -> 32  ], output grants = [ 32 -> 8  36 -> 0  ].
10 | network_0/router_level1_37 | Assigning VC 0 at output 9 to VC 0 at input 0.
10 | network_0/router_level1_37 | Completed VC allocation for VC 0 at input 0 (front: 10).
10 | network_0/router_level1_37 |   Acquiring assigned VC 0 at output 9.
10 | network_0/router_level1_37/buf_0/vc_0 | Changing state from vc_alloc to active.
10 | network_0/router_level1_46 | Adding flit 3 to VC 0 at input 0 (state: idle, empty).
10 | network_0/router_level1_46 | Using precomputed lookahead routing information for VC 0 at input 0 (front: 3).
10 | network_0/router_level1_46/buf_0/vc_0 | Changing state from idle to vc_alloc.
10 | network_0/router_level1_46 | Beginning VC allocation for VC 0 at input 0 (front: 3).
10 | network_0/router_level1_46 |   Requesting VC 0 at output 8 (in_pri: 0, out_pri: 0).
10 | network_0/router_level1_46 |   Requesting VC 1 at output 8 (in_pri: 0, out_pri: 0).
10 | network_0/router_level1_46 |   Requesting VC 2 at output 8 (in_pri: 0, out_pri: 0).
10 | network_0/router_level1_46 |   Requesting VC 3 at output 8 (in_pri: 0, out_pri: 0).
10 | network_0/router_level1_46/vc_allocator | Input requests = [ 0 -> [ 32@0 33@0 34@0 35@0 ]  4 -> [ 32@0 33@0 34@0 35@0 ]  16 -> [ 36@0 37@0 38@0 39@0 ]  24 -> [ 32@0 33@0 34@0 35@0 ]  ], output requests = [ 32 -> [ 0@0 4@0 24@0 ]  33 -> [ 0@0 4@0 24@0 ]  34 -> [ 0@0 4@0 24@0 ]  35 -> [ 0@0 4@0 24@0 ]  36 -> [ 16@0 ]  37 -> [ 16@0 ]  38 -> [ 16@0 ]  39 -> [ 16@0 ]  ].
10 | network_0/router_level1_46/vc_allocator | Input grants = [ 0 -> 32  16 -> 36  ], output grants = [ 32 -> 0  36 -> 16  ].
10 | network_0/router_level1_46 | Assigning VC 0 at output 8 to VC 0 at input 0.
10 | network_0/router_level1_46 | Completed VC allocation for VC 0 at input 0 (front: 3).
10 | network_0/router_level1_46 |   Acquiring assigned VC 0 at output 8.
10 | network_0/router_level1_46/buf_0/vc_0 | Changing state from vc_alloc to active.
10 | network_0/network_0_fchan_12318 | Completed channel traversal for flit 7.
10 | network_0/network_0_fchan_12328 | Completed channel traversal for flit 6.
11 | network_0/router_level1_5 | Received flit 6 from channel at input 0.
11 | network_0/router_level1_51 | Received flit 7 from channel at input 0.
11 | network_0/router_level1_4 | Beginning switch allocation for VC 0 at input 0 (front: 5).
11 | network_0/router_level1_4 |   Requesting output 9.0 (non-spec, pri: 0).
11 | network_0/router_level1_4/sw_allocator | Input requests = [ 0 -> [ 9@0 ]  5 -> [ 8@0 ]  ], output requests = [ 8 -> [ 5@0 ]  9 -> [ 0@0 ]  ].
11 | network_0/router_level1_4/sw_allocator | Input grants = [ 0 -> 9  5 -> 8  ], output grants = [ 8 -> 5  9 -> 0  ].
11 | network_0/router_level1_4 | Assigning output 9.0 to VC 0 at input 0.0.
11 | network_0/router_level1_4 | Completed switch allocation for VC 0 at input 0 (front: 5).
11 | network_0/router_level1_4 |   Scheduling switch connection from input 0.0 to output 9.0.
11 | network_0/router_level1_4 | Updating lookahead routing information for flit 5.
11 | network_0/router_level1_5 | Adding flit 6 to VC 1 at input 0 (state: idle, empty).
11 | network_0/router_level1_5 | Using precomputed lookahead routing information for VC 1 at input 0 (front: 6).
11 | network_0/router_level1_5/buf_0/vc_1 | Changing state from idle to vc_alloc.
11 | network_0/router_level1_5 | Beginning VC allocation for VC 1 at input 0 (front: 6).
11 | network_0/router_level1_5 |   VC 0 at output 9 is in use by VC 0 at input 5 (front flit: 221).
11 | network_0/router_level1_5 |   Requesting VC 1 at output 9 (in_pri: 0, out_pri: 0).
11 | network_0/router_level1_5 |   Requesting VC 2 at output 9 (in_pri: 0, out_pri: 0).
11 | network_0/router_level1_5 |   Requesting VC 3 at output 9 (in_pri: 0, out_pri: 0).
11 | network_0/router_level1_5/vc_allocator | Input requests = [ 1 -> [ 37@0 38@0 39@0 ]  12 -> [ 33@0 34@0 35@0 ]  16 -> [ 37@0 38@0 39@0 ]  21 -> [ 37@0 38@0 39@0 ]  28 -> [ 37@0 38@0 39@0 ]  29 -> [ 37@0 38@0 39@0 ]  ], output requests = [ 33 -> [ 12@0 ]  34 -> [ 12@0 ]  35 -> [ 12@0 ]  37 -> [ 1@0 16@0 21@0 28@0 29@0 ]  38 -> [ 1@0 16@0 21@0 28@0 29@0 ]  39 -> [ 1@0 16@0 21@0 28@0 29@0 ]  ].
11 | network_0/router_level1_5/vc_allocator | Input grants = [ 1 -> 37  12 -> 33  ], output grants = [ 33 -> 12  37 -> 1  ].
11 | network_0/router_level1_5 | Assigning VC 1 at output 9 to VC 1 at input 0.
11 | network_0/router_level1_5 | Beginning switch allocation for VC 0 at input 0 (front: 1).
11 | network_0/router_level1_5 |   Requesting output 8.0 (non-spec, pri: 0).
11 | network_0/router_level1_5/sw_allocator | Input requests = [ 0 -> [ 8@0 ]  5 -> [ 9@0 ]  ], output requests = [ 8 -> [ 0@0 ]  9 -> [ 5@0 ]  ].
11 | network_0/router_level1_5/sw_allocator | Input grants = [ 0 -> 8  5 -> 9  ], output grants = [ 8 -> 0  9 -> 5  ].
11 | network_0/router_level1_5 | Assigning output 8.0 to VC 0 at input 0.0.
11 | network_0/router_level1_5 | Completed VC allocation for VC 1 at input 0 (front: 6).
11 | network_0/router_level1_5 |   Acquiring assigned VC 1 at output 9.
11 | network_0/router_level1_5/buf_0/vc_1 | Changing state from vc_alloc to active.
11 | network_0/router_level1_5 | Completed switch allocation for VC 0 at input 0 (front: 1).
11 | network_0/router_level1_5 |   Scheduling switch connection from input 0.0 to output 8.0.
11 | network_0/router_level1_5 | Updating lookahead routing information for flit 1.
11 | network_0/router_level1_11 | Beginning switch allocation for VC 0 at input 0 (front: 4).
11 | network_0/router_level1_11 |   Requesting output 8.0 (non-spec, pri: 0).
11 | network_0/router_level1_11/sw_allocator | Input requests = [ 0 -> [ 8@0 ]  6 -> [ 9@0 ]  ], output requests = [ 8 -> [ 0@0 ]  9 -> [ 6@0 ]  ].
[...]
27 | network_0/router_level3_510 |   Requesting output 1.0 (non-spec, pri: 0).
27 | network_0/router_level3_510 | Beginning switch allocation for VC 0 at input 10 (front: 9).
27 | network_0/router_level3_510 |   Requesting output 0.0 (non-spec, pri: 0).
27 | network_0/router_level3_510 | Beginning switch allocation for VC 0 at input 11 (front: 4).
27 | network_0/router_level3_510 |   Requesting output 6.0 (non-spec, pri: 0).
27 | network_0/router_level3_510 | Beginning switch allocation for VC 0 at input 12 (front: 5).
27 | network_0/router_level3_510 |   Requesting output 4.0 (non-spec, pri: 0).
27 | network_0/router_level3_510 | Beginning switch allocation for VC 0 at input 14 (front: 3).
27 | network_0/router_level3_510 |   Requesting output 7.0 (non-spec, pri: 0).
27 | network_0/router_level3_510/sw_allocator | Input requests = [ 0 -> [ 9@0 ]  1 -> [ 11@0 15@0 ]  2 -> [ 10@0 13@0 ]  4 -> [ 11@0 13@0 14@0 ]  5 -> [ 12@0 14@0 ]  6 -> [ 10@0 ]  7 -> [ 15@0 ]  8 -> [ 1@0 ]  10 -> [ 0@0 ]  11 -> [ 6@0 ]  12 -> [ 4@0 ]  14 -> [ 7@0 ]  ], output requests = [ 0 -> [ 10@0 ]  1 -> [ 8@0 ]  4 -> [ 12@0 ]  6 -> [ 11@0 ]  7 -> [ 14@0 ]  9 -> [ 0@0 ]  10 -> [ 2@0 6@0 ]  11 -> [ 1@0 4@0 ]  12 -> [ 5@0 ]  13 -> [ 2@0 4@0 ]  14 -> [ 4@0 5@0 ]  15 -> [ 1@0 7@0 ]  ].
27 | network_0/router_level3_510/sw_allocator | Input grants = [ 0 -> 9  2 -> 10  4 -> 11  5 -> 12  7 -> 15  8 -> 1  10 -> 0  11 -> 6  12 -> 4  14 -> 7  ], output grants = [ 0 -> 10  1 -> 8  4 -> 12  6 -> 11  7 -> 14  9 -> 0  10 -> 2  11 -> 4  12 -> 5  15 -> 7  ].
27 | network_0/router_level3_510 | Assigning output 1.0 to VC 0 at input 8.0.
27 | network_0/router_level3_510 | Assigning output 0.0 to VC 0 at input 10.0.
27 | network_0/router_level3_510 | Assigning output 6.0 to VC 0 at input 11.0.
27 | network_0/router_level3_510 | Assigning output 4.0 to VC 0 at input 12.0.
27 | network_0/router_level3_510 | Assigning output 7.0 to VC 0 at input 14.0.
27 | network_0/router_level3_510 | Completed VC allocation for VC 1 at input 11 (front: 7).
27 | network_0/router_level3_510 |   Acquiring assigned VC 0 at output 2.
27 | network_0/router_level3_510/buf_11/vc_1 | Changing state from vc_alloc to active.
27 | network_0/router_level3_510 | Completed VC allocation for VC 0 at input 13 (front: 6).
27 | network_0/router_level3_510 |   No output VC allocated.
27 | network_0/router_level3_510 | Completed switch allocation for VC 0 at input 8 (front: 8).
27 | network_0/router_level3_510 |   Scheduling switch connection from input 8.0 to output 1.0.
27 | network_0/router_level3_510 | Completed switch allocation for VC 0 at input 10 (front: 9).
27 | network_0/router_level3_510 |   Scheduling switch connection from input 10.0 to output 0.0.
27 | network_0/router_level3_510 | Completed switch allocation for VC 0 at input 11 (front: 4).
27 | network_0/router_level3_510 |   Scheduling switch connection from input 11.0 to output 6.0.
27 | network_0/router_level3_510 | Completed switch allocation for VC 0 at input 12 (front: 5).
27 | network_0/router_level3_510 |   Scheduling switch connection from input 12.0 to output 4.0.
27 | network_0/router_level3_510 | Completed switch allocation for VC 0 at input 14 (front: 3).
27 | network_0/router_level3_510 |   Scheduling switch connection from input 14.0 to output 7.0.
27 | network_0/router_level3_511 | Beginning switch allocation for VC 0 at input 13 (front: 1).
27 | network_0/router_level3_511 |   Requesting output 3.0 (non-spec, pri: 0).
27 | network_0/router_level3_511 | Beginning switch allocation for VC 0 at input 14 (front: 2).
27 | network_0/router_level3_511 |   Requesting output 2.0 (non-spec, pri: 0).
27 | network_0/router_level3_511/sw_allocator | Input requests = [ 1 -> [ 12@0 ]  3 -> [ 9@0 11@0 ]  4 -> [ 9@0 15@0 ]  6 -> [ 8@0 11@0 ]  7 -> [ 12@0 ]  12 -> [ 6@0 ]  13 -> [ 3@0 ]  14 -> [ 2@0 ]  ], output requests = [ 2 -> [ 14@0 ]  3 -> [ 13@0 ]  6 -> [ 12@0 ]  8 -> [ 6@0 ]  9 -> [ 3@0 4@0 ]  11 -> [ 3@0 6@0 ]  12 -> [ 1@0 7@0 ]  15 -> [ 4@0 ]  ].
27 | network_0/router_level3_511/sw_allocator | Input grants = [ 1 -> 12  3 -> 9  6 -> 11  12 -> 6  13 -> 3  14 -> 2  ], output grants = [ 2 -> 14  3 -> 13  6 -> 12  9 -> 3  11 -> 6  12 -> 1  ].
27 | network_0/router_level3_511 | Assigning output 3.0 to VC 0 at input 13.0.
27 | network_0/router_level3_511 | Assigning output 2.0 to VC 0 at input 14.0.
27 | network_0/router_level3_511 | Completed switch allocation for VC 0 at input 13 (front: 1).
27 | network_0/router_level3_511 |   Scheduling switch connection from input 13.0 to output 3.0.
27 | network_0/router_level3_511 | Completed switch allocation for VC 0 at input 14 (front: 2).
27 | network_0/router_level3_511 |   Scheduling switch connection from input 14.0 to output 2.0.
28 | network_0/router_level3_509 | Beginning crossbar traversal for flit 10 from input 13.0 to output 6.0.
28 | network_0/router_level3_509 | Completed crossbar traversal for flit 10 from input 13.0 to output 6.0.
28 | network_0/router_level3_509 | Buffering flit 10 at output 6.
28 | network_0/router_level3_510 | Beginning VC allocation for VC 0 at input 13 (front: 6).
28 | network_0/router_level3_510 |   VC 0 at output 3 is in use by VC 0 at input 9 (front flit: 2412).
28 | network_0/router_level3_510 |   Requesting VC 1 at output 3 (in_pri: 0, out_pri: 0).
28 | network_0/router_level3_510 |   Requesting VC 2 at output 3 (in_pri: 0, out_pri: 0).
28 | network_0/router_level3_510 |   Requesting VC 3 at output 3 (in_pri: 0, out_pri: 0).
28 | network_0/router_level3_510/vc_allocator | Input requests = [ 3 -> [ 33@0 34@0 35@0 ]  7 -> [ 55@0 ]  23 -> [ 56@0 ]  24 -> [ 40@0 41@0 42@0 ]  29 -> [ 44@0 47@0 ]  37 -> [ 13@0 14@0 15@0 ]  52 -> [ 13@0 14@0 15@0 ]  ], output requests = [ 13 -> [ 37@0 52@0 ]  14 -> [ 37@0 52@0 ]  15 -> [ 37@0 52@0 ]  33 -> [ 3@0 ]  34 -> [ 3@0 ]  35 -> [ 3@0 ]  40 -> [ 24@0 ]  41 -> [ 24@0 ]  42 -> [ 24@0 ]  44 -> [ 29@0 ]  47 -> [ 29@0 ]  55 -> [ 7@0 ]  56 -> [ 23@0 ]  ].
28 | network_0/router_level3_510/vc_allocator | Input grants = [ 3 -> 33  7 -> 55  23 -> 56  24 -> 40  29 -> 44  37 -> 13  ], output grants = [ 13 -> 37  33 -> 3  40 -> 24  44 -> 29  55 -> 7  56 -> 23  ].
28 | network_0/router_level3_510 | VC allocation failed for VC 0 at input 13.
28 | network_0/router_level3_510 | Beginning switch allocation for VC 1 at input 11 (front: 7).
28 | network_0/router_level3_510 |   Requesting output 2.0 (non-spec, pri: 0).
28 | network_0/router_level3_510/sw_allocator | Input requests = [ 1 -> [ 11@0 15@0 ]  2 -> [ 11@0 13@0 ]  4 -> [ 13@0 14@0 ]  5 -> [ 13@0 14@0 ]  6 -> [ 8@0 10@0 ]  9 -> [ 3@0 ]  11 -> [ 2@0 ]  12 -> [ 1@0 ]  14 -> [ 6@0 ]  ], output requests = [ 1 -> [ 12@0 ]  2 -> [ 11@0 ]  3 -> [ 9@0 ]  6 -> [ 14@0 ]  8 -> [ 6@0 ]  10 -> [ 6@0 ]  11 -> [ 1@0 2@0 ]  13 -> [ 2@0 4@0 5@0 ]  14 -> [ 4@0 5@0 ]  15 -> [ 1@0 ]  ].
28 | network_0/router_level3_510/sw_allocator | Input grants = [ 1 -> 15  2 -> 11  4 -> 13  6 -> 8  9 -> 3  11 -> 2  12 -> 1  14 -> 6  ], output grants = [ 1 -> 12  2 -> 11  3 -> 9  6 -> 14  8 -> 6  11 -> 2  13 -> 4  15 -> 1  ].
28 | network_0/router_level3_510 | Assigning output 2.0 to VC 1 at input 11.0.
28 | network_0/router_level3_510 | Beginning crossbar traversal for flit 8 from input 8.0 to output 1.0.
28 | network_0/router_level3_510 | Beginning crossbar traversal for flit 9 from input 10.0 to output 0.0.
28 | network_0/router_level3_510 | Beginning crossbar traversal for flit 4 from input 11.0 to output 6.0.
28 | network_0/router_level3_510 | Beginning crossbar traversal for flit 5 from input 12.0 to output 4.0.
28 | network_0/router_level3_510 | Beginning crossbar traversal for flit 3 from input 14.0 to output 7.0.
28 | network_0/router_level3_510 | Completed VC allocation for VC 0 at input 13 (front: 6).
28 | network_0/router_level3_510 |   No output VC allocated.
28 | network_0/router_level3_510 | Completed switch allocation for VC 1 at input 11 (front: 7).
28 | network_0/router_level3_510 |   Scheduling switch connection from input 11.0 to output 2.0.
28 | network_0/router_level3_510 | Completed crossbar traversal for flit 8 from input 8.0 to output 1.0.
28 | network_0/router_level3_510 | Buffering flit 8 at output 1.
28 | network_0/router_level3_510 | Completed crossbar traversal for flit 9 from input 10.0 to output 0.0.
28 | network_0/router_level3_510 | Buffering flit 9 at output 0.
28 | network_0/router_level3_510 | Completed crossbar traversal for flit 4 from input 11.0 to output 6.0.
28 | network_0/router_level3_510 | Buffering flit 4 at output 6.
28 | network_0/router_level3_510 | Completed crossbar traversal for flit 5 from input 12.0 to output 4.0.
28 | network_0/router_level3_510 | Buffering flit 5 at output 4.
28 | network_0/router_level3_510 | Completed crossbar traversal for flit 3 from input 14.0 to output 7.0.
28 | network_0/router_level3_510 | Buffering flit 3 at output 7.
28 | network_0/router_level3_511 | Beginning crossbar traversal for flit 1 from input 13.0 to output 3.0.
28 | network_0/router_level3_511 | Beginning crossbar traversal for flit 2 from input 14.0 to output 2.0.
28 | network_0/router_level3_511 | Completed crossbar traversal for flit 1 from input 13.0 to output 3.0.
28 | network_0/router_level3_511 | Buffering flit 1 at output 3.
28 | network_0/router_level3_511 | Completed crossbar traversal for flit 2 from input 14.0 to output 2.0.
28 | network_0/router_level3_511 | Buffering flit 2 at output 2.
28 | network_0/router_level3_509 | Sending flit 10 to channel at output 6.
28 | network_0/router_level3_510 | Sending flit 9 to channel at output 0.
28 | network_0/router_level3_510 | Sending flit 8 to channel at output 1.
28 | network_0/router_level3_510 | Sending flit 5 to channel at output 4.
28 | network_0/router_level3_510 | Sending flit 4 to channel at output 6.
28 | network_0/router_level3_510 | Sending flit 3 to channel at output 7.
28 | network_0/router_level3_511 | Sending flit 2 to channel at output 2.
28 | network_0/router_level3_511 | Sending flit 1 to channel at output 3.
29 | network_0/network_0_fchan_egress4078 | Beginning channel traversal for flit 10 with delay 1.
29 | network_0/network_0_fchan_egress4080 | Beginning channel traversal for flit 9 with delay 1.
29 | network_0/network_0_fchan_egress4081 | Beginning channel traversal for flit 8 with delay 1.
29 | network_0/network_0_fchan_egress4084 | Beginning channel traversal for flit 5 with delay 1.
29 | network_0/network_0_fchan_egress4086 | Beginning channel traversal for flit 4 with delay 1.
29 | network_0/network_0_fchan_egress4087 | Beginning channel traversal for flit 3 with delay 1.
29 | network_0/network_0_fchan_egress4090 | Beginning channel traversal for flit 2 with delay 1.
29 | network_0/network_0_fchan_egress4091 | Beginning channel traversal for flit 1 with delay 1.
29 | network_0/router_level3_510 | Beginning VC allocation for VC 0 at input 13 (front: 6).
29 | network_0/router_level3_510 |   Requesting VC 0 at output 3 (in_pri: 0, out_pri: 0).
29 | network_0/router_level3_510 |   VC 1 at output 3 is in use by VC 1 at input 9 (front flit: 4895).
29 | network_0/router_level3_510 |   Requesting VC 2 at output 3 (in_pri: 0, out_pri: 0).
29 | network_0/router_level3_510 |   Requesting VC 3 at output 3 (in_pri: 0, out_pri: 0).
29 | network_0/router_level3_510/vc_allocator | Input requests = [ 0 -> [ 60@0 61@0 63@0 ]  9 -> [ 60@0 61@0 63@0 ]  15 -> [ 48@0 49@0 50@0 51@0 ]  30 -> [ 52@0 ]  32 -> [ 28@0 29@0 30@0 31@0 ]  36 -> [ 12@0 14@0 15@0 ]  52 -> [ 12@0 14@0 15@0 ]  ], output requests = [ 12 -> [ 36@0 52@0 ]  14 -> [ 36@0 52@0 ]  15 -> [ 36@0 52@0 ]  28 -> [ 32@0 ]  29 -> [ 32@0 ]  30 -> [ 32@0 ]  31 -> [ 32@0 ]  48 -> [ 15@0 ]  49 -> [ 15@0 ]  50 -> [ 15@0 ]  51 -> [ 15@0 ]  52 -> [ 30@0 ]  60 -> [ 0@0 9@0 ]  61 -> [ 0@0 9@0 ]  63 -> [ 0@0 9@0 ]  ].
29 | network_0/router_level3_510/vc_allocator | Input grants = [ 0 -> 60  15 -> 48  30 -> 52  32 -> 28  36 -> 14  52 -> 12  ], output grants = [ 12 -> 52  14 -> 36  28 -> 32  48 -> 15  52 -> 30  60 -> 0  ].
29 | network_0/router_level3_510 | Assigning VC 0 at output 3 to VC 0 at input 13.
29 | network_0/router_level3_510 | Beginning crossbar traversal for flit 7 from input 11.0 to output 2.0.
29 | network_0/router_level3_510 | Completed VC allocation for VC 0 at input 13 (front: 6).
29 | network_0/router_level3_510 |   Acquiring assigned VC 0 at output 3.
29 | network_0/router_level3_510/buf_13/vc_0 | Changing state from vc_alloc to active.
29 | network_0/router_level3_510 | Completed crossbar traversal for flit 7 from input 11.0 to output 2.0.
29 | network_0/router_level3_510 | Buffering flit 7 at output 2.
29 | network_0/network_0_fchan_egress4078 | Completed channel traversal for flit 10.
29 | network_0/network_0_fchan_egress4080 | Completed channel traversal for flit 9.
29 | network_0/network_0_fchan_egress4081 | Completed channel traversal for flit 8.
29 | network_0/network_0_fchan_egress4084 | Completed channel traversal for flit 5.
29 | network_0/network_0_fchan_egress4086 | Completed channel traversal for flit 4.
29 | network_0/network_0_fchan_egress4087 | Completed channel traversal for flit 3.
29 | network_0/network_0_fchan_egress4090 | Completed channel traversal for flit 2.
29 | network_0/network_0_fchan_egress4091 | Completed channel traversal for flit 1.
29 | network_0/router_level3_510 | Sending flit 7 to channel at output 2.
30 | node4078 | Ejecting flit 10 (packet 10) from VC 0.
30 | node4080 | Ejecting flit 9 (packet 9) from VC 0.
30 | node4081 | Ejecting flit 8 (packet 8) from VC 0.
30 | node4084 | Ejecting flit 5 (packet 5) from VC 0.
30 | node4086 | Ejecting flit 4 (packet 4) from VC 0.
30 | node4087 | Ejecting flit 3 (packet 3) from VC 0.
30 | node4090 | Ejecting flit 2 (packet 2) from VC 0.
30 | node4091 | Ejecting flit 1 (packet 1) from VC 0.
30 | network_0/network_0_fchan_egress4082 | Beginning channel traversal for flit 7 with delay 1.
30 | node4078 | Injecting credit for VC 0 into subnet 0.
30 | node4078 | Retiring flit 10 (packet 10, src = 17, dest = 4078, hops = 7, flat = 30).
30 | node4078 | Retiring packet 10 (plat = 30, nlat = 30, frag = 0, src = 17, dest = 4078).
30 | node4080 | Injecting credit for VC 0 into subnet 0.
30 | node4080 | Retiring flit 9 (packet 9, src = 15, dest = 4080, hops = 7, flat = 30).
30 | node4080 | Retiring packet 9 (plat = 30, nlat = 30, frag = 0, src = 15, dest = 4080).
30 | node4081 | Injecting credit for VC 0 into subnet 0.
30 | node4081 | Retiring flit 8 (packet 8, src = 14, dest = 4081, hops = 7, flat = 30).
30 | node4081 | Retiring packet 8 (plat = 30, nlat = 30, frag = 0, src = 14, dest = 4081).
30 | node4084 | Injecting credit for VC 0 into subnet 0.
30 | node4084 | Retiring flit 5 (packet 5, src = 11, dest = 4084, hops = 7, flat = 30).
30 | node4084 | Retiring packet 5 (plat = 30, nlat = 30, frag = 0, src = 11, dest = 4084).
30 | node4086 | Injecting credit for VC 0 into subnet 0.
30 | node4086 | Retiring flit 4 (packet 4, src = 9, dest = 4086, hops = 7, flat = 30).
30 | node4086 | Retiring packet 4 (plat = 30, nlat = 30, frag = 0, src = 9, dest = 4086).
30 | node4087 | Injecting credit for VC 0 into subnet 0.
30 | node4087 | Retiring flit 3 (packet 3, src = 8, dest = 4087, hops = 7, flat = 30).
30 | node4087 | Retiring packet 3 (plat = 30, nlat = 30, frag = 0, src = 8, dest = 4087).
30 | node4090 | Injecting credit for VC 0 into subnet 0.
30 | node4090 | Retiring flit 2 (packet 2, src = 5, dest = 4090, hops = 7, flat = 30).
30 | node4090 | Retiring packet 2 (plat = 30, nlat = 30, frag = 0, src = 5, dest = 4090).
30 | node4091 | Injecting credit for VC 0 into subnet 0.
30 | node4091 | Retiring flit 1 (packet 1, src = 4, dest = 4091, hops = 7, flat = 30).
30 | node4091 | Retiring packet 1 (plat = 30, nlat = 30, frag = 0, src = 4, dest = 4091).
30 | network_0/router_level3_510 | Beginning switch allocation for VC 0 at input 13 (front: 6).
30 | network_0/router_level3_510 |   Requesting output 3.0 (non-spec, pri: 0).
30 | network_0/router_level3_510/sw_allocator | Input requests = [ 0 -> [ 15@0 ]  1 -> [ 11@0 13@0 15@0 ]  2 -> [ 13@0 ]  3 -> [ 12@0 ]  4 -> [ 14@0 ]  5 -> [ 14@0 ]  6 -> [ 10@0 ]  7 -> [ 13@0 ]  8 -> [ 7@0 ]  9 -> [ 3@0 ]  13 -> [ 3@0 ]  ], output requests = [ 3 -> [ 9@0 13@0 ]  7 -> [ 8@0 ]  10 -> [ 6@0 ]  11 -> [ 1@0 ]  12 -> [ 3@0 ]  13 -> [ 1@0 2@0 7@0 ]  14 -> [ 4@0 5@0 ]  15 -> [ 0@0 1@0 ]  ].
30 | network_0/router_level3_510/sw_allocator | Input grants = [ 0 -> 15  1 -> 11  3 -> 12  5 -> 14  6 -> 10  7 -> 13  8 -> 7  13 -> 3  ], output grants = [ 3 -> 13  7 -> 8  10 -> 6  11 -> 1  12 -> 3  13 -> 7  14 -> 5  15 -> 0  ].
30 | network_0/router_level3_510 | Assigning output 3.0 to VC 0 at input 13.0.
30 | network_0/router_level3_510 | Completed switch allocation for VC 0 at input 13 (front: 6).
30 | network_0/router_level3_510 |   Scheduling switch connection from input 13.0 to output 3.0.
30 | network_0/network_0_fchan_egress4082 | Completed channel traversal for flit 7.
31 | node4082 | Ejecting flit 7 (packet 7) from VC 0.
31 | node4082 | Injecting credit for VC 0 into subnet 0.
31 | node4082 | Retiring flit 7 (packet 7, src = 13, dest = 4082, hops = 7, flat = 31).
31 | node4082 | Retiring packet 7 (plat = 31, nlat = 31, frag = 0, src = 13, dest = 4082).
31 | network_0/router_level3_510 | Beginning crossbar traversal for flit 6 from input 13.0 to output 3.0.
31 | network_0/router_level3_510 | Completed crossbar traversal for flit 6 from input 13.0 to output 3.0.
31 | network_0/router_level3_510 | Buffering flit 6 at output 3.
31 | network_0/router_level3_510 | Sending flit 6 to channel at output 3.
32 | network_0/network_0_fchan_egress4083 | Beginning channel traversal for flit 6 with delay 1.
32 | network_0/network_0_fchan_egress4083 | Completed channel traversal for flit 6.
33 | node4083 | Ejecting flit 6 (packet 6) from VC 0.
33 | node4083 | Injecting credit for VC 0 into subnet 0.
33 | node4083 | Retiring flit 6 (packet 6, src = 12, dest = 4083, hops = 7, flat = 33).
33 | node4083 | Retiring packet 6 (plat = 33, nlat = 33, frag = 0, src = 12, dest = 4083).
Class 0:
Packet latency average = 312.412
	minimum = 30
	maximum = 859
Network latency average = 311.726
	minimum = 30
	maximum = 859
Slowest packet = 344441
Flit latency average = 311.726
	minimum = 30
	maximum = 859
Slowest flit = 344441
Fragmentation average = 0
	minimum = 0
	maximum = 0
Injected packet rate average = 0.399948
	minimum = 0.296 (at node 3357)
	maximum = 0.494 (at node 1962)
Accepted packet rate average = 0.235231
	minimum = 0.178 (at node 3580)
	maximum = 0.288 (at node 1560)
Injected flit rate average = 0.399948
	minimum = 0.296 (at node 3357)
	maximum = 0.494 (at node 1962)
Accepted flit rate average= 0.235231
	minimum = 0.178 (at node 3580)
	maximum = 0.288 (at node 1560)
Injected packet length average = 1
Accepted packet length average = 1
Total in-flight flits = 677823 (0 measured)
latency change    = 1
throughput change = 1
Class 0:
Packet latency average = 610.711
	minimum = 30
	maximum = 1596
Network latency average = 493.502
	minimum = 30
	maximum = 1596
Slowest packet = 899482
Flit latency average = 493.502
	minimum = 30
	maximum = 1596
Slowest flit = 899482
Fragmentation average = 0
	minimum = 0
	maximum = 0
Injected packet rate average = 0.318171
	minimum = 0.247 (at node 555)
	maximum = 0.403 (at node 3228)
Accepted packet rate average = 0.238492
	minimum = 0.1765 (at node 3613)
	maximum = 0.3075 (at node 3785)
Injected flit rate average = 0.318171
	minimum = 0.247 (at node 555)
	maximum = 0.403 (at node 3228)
Accepted flit rate average= 0.238492
	minimum = 0.1765 (at node 3613)
	maximum = 0.3075 (at node 3785)
Injected packet length average = 1
Accepted packet length average = 1
Total in-flight flits = 655848 (0 measured)
latency change    = 0.488446
throughput change = 0.0136744
Average latency for class 0 exceeded 500 cycles. Aborting simulation.
Too many sample periods needed to converge
Simulation unstable, ending ...
Total run time 313.338
