BEGIN Configuration File: examples/fattree_config_1.00_4_transpose
// $Id: dragonflyconfig 3555 2011-05-16 23:37:55Z dub $

// Copyright (c) 2007-2015, Trustees of The Leland Stanford Junior University
// All rights reserved.
//
// Redistribution and use in source and binary forms, with or without
// modification, are permitted provided that the following conditions are met:
//
// Redistributions of source code must retain the above copyright notice, this
// list of conditions and the following disclaimer.
// Redistributions in binary form must reproduce the above copyright notice,
// this list of conditions and the following disclaimer in the documentation
// and/or other materials provided with the distribution.
//
// THIS SOFTWARE IS PROVIDED BY THE COPYRIGHT HOLDERS AND CONTRIBUTORS "AS IS"
// AND ANY EXPRESS OR IMPLIED WARRANTIES, INCLUDING, BUT NOT LIMITED TO, THE
// IMPLIED WARRANTIES OF MERCHANTABILITY AND FITNESS FOR A PARTICULAR PURPOSE
// ARE DISCLAIMED. IN NO EVENT SHALL THE COPYRIGHT OWNER OR CONTRIBUTORS BE
// LIABLE FOR ANY DIRECT, INDIRECT, INCIDENTAL, SPECIAL, EXEMPLARY, OR
// CONSEQUENTIAL DAMAGES (INCLUDING, BUT NOT LIMITED TO, PROCUREMENT OF
// SUBSTITUTE GOODS OR SERVICES; LOSS OF USE, DATA, OR PROFITS; OR BUSINESS
// INTERRUPTION) HOWEVER CAUSED AND ON ANY THEORY OF LIABILITY, WHETHER IN
// CONTRACT, STRICT LIABILITY, OR TORT (INCLUDING NEGLIGENCE OR OTHERWISE)
// ARISING IN ANY WAY OUT OF THE USE OF THIS SOFTWARE, EVEN IF ADVISED OF THE
// POSSIBILITY OF SUCH DAMAGE.


hold_switch_for_packet=1;

vc_buf_size = 16;


wait_for_tail_credit = 0;

//
// Router architecture
//
vc_allocator = separable_input_first; 
sw_allocator = separable_input_first;
alloc_iters  = 1;

credit_delay   = 2;
routing_delay  = 0;
vc_alloc_delay = 1;
sw_alloc_delay = 1;
st_final_delay = 1;

input_speedup     = 1;
output_speedup    = 1;
internal_speedup  = 1.0;


warmup_periods = 3;
sim_count          = 1;

sample_period  = 1000;  

routing_function = nca;
num_vcs     = 4;

priority = none;
traffic = transpose;


injection_rate = 1.00;
packet_size = 1;
injection_rate_uses_flits=1;

topology = fattree;

k  = 8;
n  = 4;
t = 4;

watch_file = watchfile.txt;
watch_out=-;
stats_out = examples/fattree_config_1.00_4_transpose.m;

END Configuration File: examples/fattree_config_1.00_4_transpose
Fat Tree
 k = 8 levels = 4
 each switch - total radix =  16
 # of switches = 2048
 # of channels = 24576
 # of nodes ( size of network ) = 4096
 tapering factor = 4
0 | node1 | Enqueuing flit 1 (packet 1) at time 0.
0 | node2 | Enqueuing flit 2 (packet 2) at time 0.
0 | node3 | Enqueuing flit 3 (packet 3) at time 0.
0 | node4 | Enqueuing flit 4 (packet 4) at time 0.
0 | node5 | Enqueuing flit 5 (packet 5) at time 0.
0 | node6 | Enqueuing flit 6 (packet 6) at time 0.
0 | node7 | Enqueuing flit 7 (packet 7) at time 0.
0 | node8 | Enqueuing flit 8 (packet 8) at time 0.
0 | node9 | Enqueuing flit 9 (packet 9) at time 0.
0 | node10 | Enqueuing flit 10 (packet 10) at time 0.
0 | traffic_manager | Finding output VC for flit 1:
0 | traffic_manager |   Selected output VC 0.
0 | node1 | Generating lookahead routing info for flit 1.
0 | node1 | Injecting flit 1 into subnet 0 at time 0 with priority 0.
0 | traffic_manager | Finding output VC for flit 2:
0 | traffic_manager |   Selected output VC 0.
0 | node2 | Generating lookahead routing info for flit 2.
0 | node2 | Injecting flit 2 into subnet 0 at time 0 with priority 0.
0 | traffic_manager | Finding output VC for flit 3:
0 | traffic_manager |   Selected output VC 0.
0 | node3 | Generating lookahead routing info for flit 3.
0 | node3 | Injecting flit 3 into subnet 0 at time 0 with priority 0.
0 | traffic_manager | Finding output VC for flit 4:
0 | traffic_manager |   Selected output VC 0.
0 | node4 | Generating lookahead routing info for flit 4.
0 | node4 | Injecting flit 4 into subnet 0 at time 0 with priority 0.
0 | traffic_manager | Finding output VC for flit 5:
0 | traffic_manager |   Selected output VC 0.
0 | node5 | Generating lookahead routing info for flit 5.
0 | node5 | Injecting flit 5 into subnet 0 at time 0 with priority 0.
0 | traffic_manager | Finding output VC for flit 6:
0 | traffic_manager |   Selected output VC 0.
0 | node6 | Generating lookahead routing info for flit 6.
0 | node6 | Injecting flit 6 into subnet 0 at time 0 with priority 0.
0 | traffic_manager | Finding output VC for flit 7:
0 | traffic_manager |   Selected output VC 0.
0 | node7 | Generating lookahead routing info for flit 7.
0 | node7 | Injecting flit 7 into subnet 0 at time 0 with priority 0.
0 | traffic_manager | Finding output VC for flit 8:
0 | traffic_manager |   Selected output VC 0.
0 | node8 | Generating lookahead routing info for flit 8.
0 | node8 | Injecting flit 8 into subnet 0 at time 0 with priority 0.
0 | traffic_manager | Finding output VC for flit 9:
0 | traffic_manager |   Selected output VC 0.
0 | node9 | Generating lookahead routing info for flit 9.
0 | node9 | Injecting flit 9 into subnet 0 at time 0 with priority 0.
0 | traffic_manager | Finding output VC for flit 10:
0 | traffic_manager |   Selected output VC 0.
0 | node10 | Generating lookahead routing info for flit 10.
0 | node10 | Injecting flit 10 into subnet 0 at time 0 with priority 0.
1 | network_0/network_0_fchan_ingress1 | Beginning channel traversal for flit 1 with delay 1.
1 | network_0/network_0_fchan_ingress2 | Beginning channel traversal for flit 2 with delay 1.
1 | network_0/network_0_fchan_ingress3 | Beginning channel traversal for flit 3 with delay 1.
1 | network_0/network_0_fchan_ingress4 | Beginning channel traversal for flit 4 with delay 1.
1 | network_0/network_0_fchan_ingress5 | Beginning channel traversal for flit 5 with delay 1.
1 | network_0/network_0_fchan_ingress6 | Beginning channel traversal for flit 6 with delay 1.
1 | network_0/network_0_fchan_ingress7 | Beginning channel traversal for flit 7 with delay 1.
1 | network_0/network_0_fchan_ingress8 | Beginning channel traversal for flit 8 with delay 1.
1 | network_0/network_0_fchan_ingress9 | Beginning channel traversal for flit 9 with delay 1.
1 | network_0/network_0_fchan_ingress10 | Beginning channel traversal for flit 10 with delay 1.
1 | network_0/network_0_fchan_ingress1 | Completed channel traversal for flit 1.
1 | network_0/network_0_fchan_ingress2 | Completed channel traversal for flit 2.
1 | network_0/network_0_fchan_ingress3 | Completed channel traversal for flit 3.
1 | network_0/network_0_fchan_ingress4 | Completed channel traversal for flit 4.
1 | network_0/network_0_fchan_ingress5 | Completed channel traversal for flit 5.
1 | network_0/network_0_fchan_ingress6 | Completed channel traversal for flit 6.
1 | network_0/network_0_fchan_ingress7 | Completed channel traversal for flit 7.
1 | network_0/network_0_fchan_ingress8 | Completed channel traversal for flit 8.
1 | network_0/network_0_fchan_ingress9 | Completed channel traversal for flit 9.
1 | network_0/network_0_fchan_ingress10 | Completed channel traversal for flit 10.
2 | network_0/router_level3_0 | Received flit 1 from channel at input 1.
2 | network_0/router_level3_0 | Received flit 2 from channel at input 2.
2 | network_0/router_level3_0 | Received flit 3 from channel at input 3.
2 | network_0/router_level3_0 | Received flit 4 from channel at input 4.
2 | network_0/router_level3_0 | Received flit 5 from channel at input 5.
2 | network_0/router_level3_0 | Received flit 6 from channel at input 6.
2 | network_0/router_level3_0 | Received flit 7 from channel at input 7.
2 | network_0/router_level3_1 | Received flit 8 from channel at input 0.
2 | network_0/router_level3_1 | Received flit 9 from channel at input 1.
2 | network_0/router_level3_1 | Received flit 10 from channel at input 2.
2 | network_0/router_level3_0 | Adding flit 1 to VC 0 at input 1 (state: idle, empty).
2 | network_0/router_level3_0 | Using precomputed lookahead routing information for VC 0 at input 1 (front: 1).
2 | network_0/router_level3_0/buf_1/vc_0 | Changing state from idle to vc_alloc.
2 | network_0/router_level3_0 | Adding flit 2 to VC 0 at input 2 (state: idle, empty).
2 | network_0/router_level3_0 | Using precomputed lookahead routing information for VC 0 at input 2 (front: 2).
2 | network_0/router_level3_0/buf_2/vc_0 | Changing state from idle to vc_alloc.
2 | network_0/router_level3_0 | Adding flit 3 to VC 0 at input 3 (state: idle, empty).
2 | network_0/router_level3_0 | Using precomputed lookahead routing information for VC 0 at input 3 (front: 3).
2 | network_0/router_level3_0/buf_3/vc_0 | Changing state from idle to vc_alloc.
2 | network_0/router_level3_0 | Adding flit 4 to VC 0 at input 4 (state: idle, empty).
2 | network_0/router_level3_0 | Using precomputed lookahead routing information for VC 0 at input 4 (front: 4).
2 | network_0/router_level3_0/buf_4/vc_0 | Changing state from idle to vc_alloc.
2 | network_0/router_level3_0 | Adding flit 5 to VC 0 at input 5 (state: idle, empty).
2 | network_0/router_level3_0 | Using precomputed lookahead routing information for VC 0 at input 5 (front: 5).
2 | network_0/router_level3_0/buf_5/vc_0 | Changing state from idle to vc_alloc.
2 | network_0/router_level3_0 | Adding flit 6 to VC 0 at input 6 (state: idle, empty).
2 | network_0/router_level3_0 | Using precomputed lookahead routing information for VC 0 at input 6 (front: 6).
2 | network_0/router_level3_0/buf_6/vc_0 | Changing state from idle to vc_alloc.
2 | network_0/router_level3_0 | Adding flit 7 to VC 0 at input 7 (state: idle, empty).
2 | network_0/router_level3_0 | Using precomputed lookahead routing information for VC 0 at input 7 (front: 7).
2 | network_0/router_level3_0/buf_7/vc_0 | Changing state from idle to vc_alloc.
2 | network_0/router_level3_0 | Beginning VC allocation for VC 0 at input 1 (front: 1).
2 | network_0/router_level3_0 |   Requesting VC 0 at output 8 (in_pri: 0, out_pri: 0).
2 | network_0/router_level3_0 |   Requesting VC 1 at output 8 (in_pri: 0, out_pri: 0).
2 | network_0/router_level3_0 |   Requesting VC 2 at output 8 (in_pri: 0, out_pri: 0).
2 | network_0/router_level3_0 |   Requesting VC 3 at output 8 (in_pri: 0, out_pri: 0).
2 | network_0/router_level3_0 | Beginning VC allocation for VC 0 at input 2 (front: 2).
2 | network_0/router_level3_0 |   Requesting VC 0 at output 10 (in_pri: 0, out_pri: 0).
2 | network_0/router_level3_0 |   Requesting VC 1 at output 10 (in_pri: 0, out_pri: 0).
2 | network_0/router_level3_0 |   Requesting VC 2 at output 10 (in_pri: 0, out_pri: 0).
2 | network_0/router_level3_0 |   Requesting VC 3 at output 10 (in_pri: 0, out_pri: 0).
2 | network_0/router_level3_0 | Beginning VC allocation for VC 0 at input 3 (front: 3).
2 | network_0/router_level3_0 |   Requesting VC 0 at output 9 (in_pri: 0, out_pri: 0).
2 | network_0/router_level3_0 |   Requesting VC 1 at output 9 (in_pri: 0, out_pri: 0).
2 | network_0/router_level3_0 |   Requesting VC 2 at output 9 (in_pri: 0, out_pri: 0).
2 | network_0/router_level3_0 |   Requesting VC 3 at output 9 (in_pri: 0, out_pri: 0).
2 | network_0/router_level3_0 | Beginning VC allocation for VC 0 at input 4 (front: 4).
2 | network_0/router_level3_0 |   Requesting VC 0 at output 9 (in_pri: 0, out_pri: 0).
2 | network_0/router_level3_0 |   Requesting VC 1 at output 9 (in_pri: 0, out_pri: 0).
2 | network_0/router_level3_0 |   Requesting VC 2 at output 9 (in_pri: 0, out_pri: 0).
2 | network_0/router_level3_0 |   Requesting VC 3 at output 9 (in_pri: 0, out_pri: 0).
2 | network_0/router_level3_0 | Beginning VC allocation for VC 0 at input 5 (front: 5).
2 | network_0/router_level3_0 |   Requesting VC 0 at output 15 (in_pri: 0, out_pri: 0).
2 | network_0/router_level3_0 |   Requesting VC 1 at output 15 (in_pri: 0, out_pri: 0).
2 | network_0/router_level3_0 |   Requesting VC 2 at output 15 (in_pri: 0, out_pri: 0).
2 | network_0/router_level3_0 |   Requesting VC 3 at output 15 (in_pri: 0, out_pri: 0).
2 | network_0/router_level3_0 | Beginning VC allocation for VC 0 at input 6 (front: 6).
2 | network_0/router_level3_0 |   Requesting VC 0 at output 9 (in_pri: 0, out_pri: 0).
2 | network_0/router_level3_0 |   Requesting VC 1 at output 9 (in_pri: 0, out_pri: 0).
2 | network_0/router_level3_0 |   Requesting VC 2 at output 9 (in_pri: 0, out_pri: 0).
2 | network_0/router_level3_0 |   Requesting VC 3 at output 9 (in_pri: 0, out_pri: 0).
2 | network_0/router_level3_0 | Beginning VC allocation for VC 0 at input 7 (front: 7).
2 | network_0/router_level3_0 |   Requesting VC 0 at output 12 (in_pri: 0, out_pri: 0).
2 | network_0/router_level3_0 |   Requesting VC 1 at output 12 (in_pri: 0, out_pri: 0).
2 | network_0/router_level3_0 |   Requesting VC 2 at output 12 (in_pri: 0, out_pri: 0).
2 | network_0/router_level3_0 |   Requesting VC 3 at output 12 (in_pri: 0, out_pri: 0).
2 | network_0/router_level3_0/vc_allocator | Input requests = [ 0 -> [ 0@0 1@0 2@0 3@0 ]  4 -> [ 32@0 33@0 34@0 35@0 ]  8 -> [ 40@0 41@0 42@0 43@0 ]  12 -> [ 36@0 37@0 38@0 39@0 ]  16 -> [ 36@0 37@0 38@0 39@0 ]  20 -> [ 60@0 61@0 62@0 63@0 ]  24 -> [ 36@0 37@0 38@0 39@0 ]  28 -> [ 48@0 49@0 50@0 51@0 ]  ], output requests = [ 0 -> [ 0@0 ]  1 -> [ 0@0 ]  2 -> [ 0@0 ]  3 -> [ 0@0 ]  32 -> [ 4@0 ]  33 -> [ 4@0 ]  34 -> [ 4@0 ]  35 -> [ 4@0 ]  36 -> [ 12@0 16@0 24@0 ]  37 -> [ 12@0 16@0 24@0 ]  38 -> [ 12@0 16@0 24@0 ]  39 -> [ 12@0 16@0 24@0 ]  40 -> [ 8@0 ]  41 -> [ 8@0 ]  42 -> [ 8@0 ]  43 -> [ 8@0 ]  48 -> [ 28@0 ]  49 -> [ 28@0 ]  50 -> [ 28@0 ]  51 -> [ 28@0 ]  60 -> [ 20@0 ]  61 -> [ 20@0 ]  62 -> [ 20@0 ]  63 -> [ 20@0 ]  ].
2 | network_0/router_level3_0/vc_allocator | Input grants = [ 0 -> 0  4 -> 32  8 -> 40  12 -> 36  20 -> 60  28 -> 48  ], output grants = [ 0 -> 0  32 -> 4  36 -> 12  40 -> 8  48 -> 28  60 -> 20  ].
2 | network_0/router_level3_0 | Assigning VC 0 at output 8 to VC 0 at input 1.
2 | network_0/router_level3_0 | Assigning VC 0 at output 10 to VC 0 at input 2.
2 | network_0/router_level3_0 | Assigning VC 0 at output 9 to VC 0 at input 3.
2 | network_0/router_level3_0 | VC allocation failed for VC 0 at input 4.
2 | network_0/router_level3_0 | Assigning VC 0 at output 15 to VC 0 at input 5.
2 | network_0/router_level3_0 | VC allocation failed for VC 0 at input 6.
2 | network_0/router_level3_0 | Assigning VC 0 at output 12 to VC 0 at input 7.
2 | network_0/router_level3_0 | Completed VC allocation for VC 0 at input 1 (front: 1).
2 | network_0/router_level3_0 |   Acquiring assigned VC 0 at output 8.
2 | network_0/router_level3_0/buf_1/vc_0 | Changing state from vc_alloc to active.
2 | network_0/router_level3_0 | Completed VC allocation for VC 0 at input 2 (front: 2).
2 | network_0/router_level3_0 |   Acquiring assigned VC 0 at output 10.
2 | network_0/router_level3_0/buf_2/vc_0 | Changing state from vc_alloc to active.
2 | network_0/router_level3_0 | Completed VC allocation for VC 0 at input 3 (front: 3).
2 | network_0/router_level3_0 |   Acquiring assigned VC 0 at output 9.
2 | network_0/router_level3_0/buf_3/vc_0 | Changing state from vc_alloc to active.
2 | network_0/router_level3_0 | Completed VC allocation for VC 0 at input 4 (front: 4).
2 | network_0/router_level3_0 |   No output VC allocated.
2 | network_0/router_level3_0 | Completed VC allocation for VC 0 at input 5 (front: 5).
2 | network_0/router_level3_0 |   Acquiring assigned VC 0 at output 15.
2 | network_0/router_level3_0/buf_5/vc_0 | Changing state from vc_alloc to active.
2 | network_0/router_level3_0 | Completed VC allocation for VC 0 at input 6 (front: 6).
2 | network_0/router_level3_0 |   No output VC allocated.
2 | network_0/router_level3_0 | Completed VC allocation for VC 0 at input 7 (front: 7).
2 | network_0/router_level3_0 |   Acquiring assigned VC 0 at output 12.
2 | network_0/router_level3_0/buf_7/vc_0 | Changing state from vc_alloc to active.
2 | network_0/router_level3_1 | Adding flit 8 to VC 0 at input 0 (state: idle, empty).
2 | network_0/router_level3_1 | Using precomputed lookahead routing information for VC 0 at input 0 (front: 8).
2 | network_0/router_level3_1/buf_0/vc_0 | Changing state from idle to vc_alloc.
2 | network_0/router_level3_1 | Adding flit 9 to VC 0 at input 1 (state: idle, empty).
2 | network_0/router_level3_1 | Using precomputed lookahead routing information for VC 0 at input 1 (front: 9).
2 | network_0/router_level3_1/buf_1/vc_0 | Changing state from idle to vc_alloc.
2 | network_0/router_level3_1 | Adding flit 10 to VC 0 at input 2 (state: idle, empty).
2 | network_0/router_level3_1 | Using precomputed lookahead routing information for VC 0 at input 2 (front: 10).
2 | network_0/router_level3_1/buf_2/vc_0 | Changing state from idle to vc_alloc.
2 | network_0/router_level3_1 | Beginning VC allocation for VC 0 at input 0 (front: 8).
2 | network_0/router_level3_1 |   Requesting VC 0 at output 8 (in_pri: 0, out_pri: 0).
2 | network_0/router_level3_1 |   Requesting VC 1 at output 8 (in_pri: 0, out_pri: 0).
2 | network_0/router_level3_1 |   Requesting VC 2 at output 8 (in_pri: 0, out_pri: 0).
2 | network_0/router_level3_1 |   Requesting VC 3 at output 8 (in_pri: 0, out_pri: 0).
2 | network_0/router_level3_1 | Beginning VC allocation for VC 0 at input 1 (front: 9).
2 | network_0/router_level3_1 |   Requesting VC 0 at output 11 (in_pri: 0, out_pri: 0).
2 | network_0/router_level3_1 |   Requesting VC 1 at output 11 (in_pri: 0, out_pri: 0).
2 | network_0/router_level3_1 |   Requesting VC 2 at output 11 (in_pri: 0, out_pri: 0).
2 | network_0/router_level3_1 |   Requesting VC 3 at output 11 (in_pri: 0, out_pri: 0).
2 | network_0/router_level3_1 | Beginning VC allocation for VC 0 at input 2 (front: 10).
2 | network_0/router_level3_1 |   Requesting VC 0 at output 15 (in_pri: 0, out_pri: 0).
2 | network_0/router_level3_1 |   Requesting VC 1 at output 15 (in_pri: 0, out_pri: 0).
2 | network_0/router_level3_1 |   Requesting VC 2 at output 15 (in_pri: 0, out_pri: 0).
2 | network_0/router_level3_1 |   Requesting VC 3 at output 15 (in_pri: 0, out_pri: 0).
2 | network_0/router_level3_1/vc_allocator | Input requests = [ 0 -> [ 32@0 33@0 34@0 35@0 ]  4 -> [ 44@0 45@0 46@0 47@0 ]  8 -> [ 60@0 61@0 62@0 63@0 ]  12 -> [ 36@0 37@0 38@0 39@0 ]  16 -> [ 32@0 33@0 34@0 35@0 ]  20 -> [ 44@0 45@0 46@0 47@0 ]  24 -> [ 36@0 37@0 38@0 39@0 ]  28 -> [ 40@0 41@0 42@0 43@0 ]  ], output requests = [ 32 -> [ 0@0 16@0 ]  33 -> [ 0@0 16@0 ]  34 -> [ 0@0 16@0 ]  35 -> [ 0@0 16@0 ]  36 -> [ 12@0 24@0 ]  37 -> [ 12@0 24@0 ]  38 -> [ 12@0 24@0 ]  39 -> [ 12@0 24@0 ]  40 -> [ 28@0 ]  41 -> [ 28@0 ]  42 -> [ 28@0 ]  43 -> [ 28@0 ]  44 -> [ 4@0 20@0 ]  45 -> [ 4@0 20@0 ]  46 -> [ 4@0 20@0 ]  47 -> [ 4@0 20@0 ]  60 -> [ 8@0 ]  61 -> [ 8@0 ]  62 -> [ 8@0 ]  63 -> [ 8@0 ]  ].
2 | network_0/router_level3_1/vc_allocator | Input grants = [ 0 -> 32  4 -> 44  8 -> 60  12 -> 36  28 -> 40  ], output grants = [ 32 -> 0  36 -> 12  40 -> 28  44 -> 4  60 -> 8  ].
2 | network_0/router_level3_1 | Assigning VC 0 at output 8 to VC 0 at input 0.
2 | network_0/router_level3_1 | Assigning VC 0 at output 11 to VC 0 at input 1.
2 | network_0/router_level3_1 | Assigning VC 0 at output 15 to VC 0 at input 2.
2 | network_0/router_level3_1 | Completed VC allocation for VC 0 at input 0 (front: 8).
2 | network_0/router_level3_1 |   Acquiring assigned VC 0 at output 8.
2 | network_0/router_level3_1/buf_0/vc_0 | Changing state from vc_alloc to active.
2 | network_0/router_level3_1 | Completed VC allocation for VC 0 at input 1 (front: 9).
2 | network_0/router_level3_1 |   Acquiring assigned VC 0 at output 11.
2 | network_0/router_level3_1/buf_1/vc_0 | Changing state from vc_alloc to active.
2 | network_0/router_level3_1 | Completed VC allocation for VC 0 at input 2 (front: 10).
2 | network_0/router_level3_1 |   Acquiring assigned VC 0 at output 15.
2 | network_0/router_level3_1/buf_2/vc_0 | Changing state from vc_alloc to active.
3 | network_0/router_level3_0 | Beginning VC allocation for VC 0 at input 4 (front: 4).
3 | network_0/router_level3_0 |   VC 0 at output 9 is in use by VC 0 at input 3 (front flit: 3).
3 | network_0/router_level3_0 |   Requesting VC 1 at output 9 (in_pri: 0, out_pri: 0).
3 | network_0/router_level3_0 |   Requesting VC 2 at output 9 (in_pri: 0, out_pri: 0).
3 | network_0/router_level3_0 |   Requesting VC 3 at output 9 (in_pri: 0, out_pri: 0).
3 | network_0/router_level3_0 | Beginning VC allocation for VC 0 at input 6 (front: 6).
3 | network_0/router_level3_0 |   VC 0 at output 9 is in use by VC 0 at input 3 (front flit: 3).
3 | network_0/router_level3_0 |   Requesting VC 1 at output 9 (in_pri: 0, out_pri: 0).
3 | network_0/router_level3_0 |   Requesting VC 2 at output 9 (in_pri: 0, out_pri: 0).
3 | network_0/router_level3_0 |   Requesting VC 3 at output 9 (in_pri: 0, out_pri: 0).
3 | network_0/router_level3_0/vc_allocator | Input requests = [ 1 -> [ 1@0 2@0 3@0 ]  5 -> [ 37@0 38@0 39@0 ]  9 -> [ 37@0 38@0 39@0 ]  13 -> [ 33@0 34@0 35@0 ]  16 -> [ 37@0 38@0 39@0 ]  17 -> [ 52@0 53@0 54@0 55@0 ]  21 -> [ 52@0 53@0 54@0 55@0 ]  24 -> [ 37@0 38@0 39@0 ]  25 -> [ 41@0 42@0 43@0 ]  29 -> [ 56@0 57@0 58@0 59@0 ]  ], output requests = [ 1 -> [ 1@0 ]  2 -> [ 1@0 ]  3 -> [ 1@0 ]  33 -> [ 13@0 ]  34 -> [ 13@0 ]  35 -> [ 13@0 ]  37 -> [ 5@0 9@0 16@0 24@0 ]  38 -> [ 5@0 9@0 16@0 24@0 ]  39 -> [ 5@0 9@0 16@0 24@0 ]  41 -> [ 25@0 ]  42 -> [ 25@0 ]  43 -> [ 25@0 ]  52 -> [ 17@0 21@0 ]  53 -> [ 17@0 21@0 ]  54 -> [ 17@0 21@0 ]  55 -> [ 17@0 21@0 ]  56 -> [ 29@0 ]  57 -> [ 29@0 ]  58 -> [ 29@0 ]  59 -> [ 29@0 ]  ].
3 | network_0/router_level3_0/vc_allocator | Input grants = [ 1 -> 1  5 -> 37  13 -> 33  17 -> 52  25 -> 41  29 -> 56  ], output grants = [ 1 -> 1  33 -> 13  37 -> 5  41 -> 25  52 -> 17  56 -> 29  ].
3 | network_0/router_level3_0 | VC allocation failed for VC 0 at input 4.
3 | network_0/router_level3_0 | VC allocation failed for VC 0 at input 6.
3 | network_0/router_level3_0 | Beginning switch allocation for VC 0 at input 1 (front: 1).
3 | network_0/router_level3_0 |   Requesting output 8.0 (non-spec, pri: 0).
3 | network_0/router_level3_0 | Beginning switch allocation for VC 0 at input 2 (front: 2).
3 | network_0/router_level3_0 |   Requesting output 10.0 (non-spec, pri: 0).
3 | network_0/router_level3_0 | Beginning switch allocation for VC 0 at input 3 (front: 3).
3 | network_0/router_level3_0 |   Requesting output 9.0 (non-spec, pri: 0).
3 | network_0/router_level3_0 | Beginning switch allocation for VC 0 at input 5 (front: 5).
3 | network_0/router_level3_0 |   Requesting output 15.0 (non-spec, pri: 0).
3 | network_0/router_level3_0 | Beginning switch allocation for VC 0 at input 7 (front: 7).
3 | network_0/router_level3_0 |   Requesting output 12.0 (non-spec, pri: 0).
3 | network_0/router_level3_0/sw_allocator | Input requests = [ 0 -> [ 0@0 ]  1 -> [ 8@0 ]  2 -> [ 10@0 ]  3 -> [ 9@0 ]  5 -> [ 15@0 ]  7 -> [ 12@0 ]  ], output requests = [ 0 -> [ 0@0 ]  8 -> [ 1@0 ]  9 -> [ 3@0 ]  10 -> [ 2@0 ]  12 -> [ 7@0 ]  15 -> [ 5@0 ]  ].
3 | network_0/router_level3_0/sw_allocator | Input grants = [ 0 -> 0  1 -> 8  2 -> 10  3 -> 9  5 -> 15  7 -> 12  ], output grants = [ 0 -> 0  8 -> 1  9 -> 3  10 -> 2  12 -> 7  15 -> 5  ].
3 | network_0/router_level3_0 | Assigning output 8.0 to VC 0 at input 1.0.
3 | network_0/router_level3_0 | Assigning output 10.0 to VC 0 at input 2.0.
3 | network_0/router_level3_0 | Assigning output 9.0 to VC 0 at input 3.0.
3 | network_0/router_level3_0 | Assigning output 15.0 to VC 0 at input 5.0.
3 | network_0/router_level3_0 | Assigning output 12.0 to VC 0 at input 7.0.
3 | network_0/router_level3_0 | Completed VC allocation for VC 0 at input 4 (front: 4).
3 | network_0/router_level3_0 |   No output VC allocated.
3 | network_0/router_level3_0 | Completed VC allocation for VC 0 at input 6 (front: 6).
3 | network_0/router_level3_0 |   No output VC allocated.
3 | network_0/router_level3_0 | Completed switch allocation for VC 0 at input 1 (front: 1).
3 | network_0/router_level3_0 |   Scheduling switch connection from input 1.0 to output 8.0.
3 | network_0/router_level3_0 | Updating lookahead routing information for flit 1.
3 | network_0/router_level3_0 | Completed switch allocation for VC 0 at input 2 (front: 2).
3 | network_0/router_level3_0 |   Scheduling switch connection from input 2.0 to output 10.0.
3 | network_0/router_level3_0 | Updating lookahead routing information for flit 2.
3 | network_0/router_level3_0 | Completed switch allocation for VC 0 at input 3 (front: 3).
3 | network_0/router_level3_0 |   Scheduling switch connection from input 3.0 to output 9.0.
3 | network_0/router_level3_0 | Updating lookahead routing information for flit 3.
3 | network_0/router_level3_0 | Completed switch allocation for VC 0 at input 5 (front: 5).
3 | network_0/router_level3_0 |   Scheduling switch connection from input 5.0 to output 15.0.
3 | network_0/router_level3_0 | Updating lookahead routing information for flit 5.
3 | network_0/router_level3_0 | Completed switch allocation for VC 0 at input 7 (front: 7).
3 | network_0/router_level3_0 |   Scheduling switch connection from input 7.0 to output 12.0.
3 | network_0/router_level3_0 | Updating lookahead routing information for flit 7.
3 | network_0/router_level3_1 | Beginning switch allocation for VC 0 at input 0 (front: 8).
3 | network_0/router_level3_1 |   Requesting output 8.0 (non-spec, pri: 0).
3 | network_0/router_level3_1 | Beginning switch allocation for VC 0 at input 1 (front: 9).
3 | network_0/router_level3_1 |   Requesting output 11.0 (non-spec, pri: 0).
3 | network_0/router_level3_1 | Beginning switch allocation for VC 0 at input 2 (front: 10).
3 | network_0/router_level3_1 |   Requesting output 15.0 (non-spec, pri: 0).
3 | network_0/router_level3_1/sw_allocator | Input requests = [ 0 -> [ 8@0 ]  1 -> [ 11@0 ]  2 -> [ 15@0 ]  3 -> [ 9@0 ]  7 -> [ 10@0 ]  ], output requests = [ 8 -> [ 0@0 ]  9 -> [ 3@0 ]  10 -> [ 7@0 ]  11 -> [ 1@0 ]  15 -> [ 2@0 ]  ].
3 | network_0/router_level3_1/sw_allocator | Input grants = [ 0 -> 8  1 -> 11  2 -> 15  3 -> 9  7 -> 10  ], output grants = [ 8 -> 0  9 -> 3  10 -> 7  11 -> 1  15 -> 2  ].
3 | network_0/router_level3_1 | Assigning output 8.0 to VC 0 at input 0.0.
3 | network_0/router_level3_1 | Assigning output 11.0 to VC 0 at input 1.0.
3 | network_0/router_level3_1 | Assigning output 15.0 to VC 0 at input 2.0.
3 | network_0/router_level3_1 | Completed switch allocation for VC 0 at input 0 (front: 8).
3 | network_0/router_level3_1 |   Scheduling switch connection from input 0.0 to output 8.0.
3 | network_0/router_level3_1 | Updating lookahead routing information for flit 8.
3 | network_0/router_level3_1 | Completed switch allocation for VC 0 at input 1 (front: 9).
3 | network_0/router_level3_1 |   Scheduling switch connection from input 1.0 to output 11.0.
3 | network_0/router_level3_1 | Updating lookahead routing information for flit 9.
3 | network_0/router_level3_1 | Completed switch allocation for VC 0 at input 2 (front: 10).
3 | network_0/router_level3_1 |   Scheduling switch connection from input 2.0 to output 15.0.
3 | network_0/router_level3_1 | Updating lookahead routing information for flit 10.
4 | network_0/router_level3_0 | Beginning VC allocation for VC 0 at input 4 (front: 4).
4 | network_0/router_level3_0 |   Requesting VC 0 at output 9 (in_pri: 0, out_pri: 0).
4 | network_0/router_level3_0 |   VC 1 at output 9 is in use by VC 1 at input 1 (front flit: 4097).
4 | network_0/router_level3_0 |   Requesting VC 2 at output 9 (in_pri: 0, out_pri: 0).
4 | network_0/router_level3_0 |   Requesting VC 3 at output 9 (in_pri: 0, out_pri: 0).
4 | network_0/router_level3_0 | Beginning VC allocation for VC 0 at input 6 (front: 6).
4 | network_0/router_level3_0 |   Requesting VC 0 at output 9 (in_pri: 0, out_pri: 0).
4 | network_0/router_level3_0 |   VC 1 at output 9 is in use by VC 1 at input 1 (front flit: 4097).
4 | network_0/router_level3_0 |   Requesting VC 2 at output 9 (in_pri: 0, out_pri: 0).
4 | network_0/router_level3_0 |   Requesting VC 3 at output 9 (in_pri: 0, out_pri: 0).
4 | network_0/router_level3_0/vc_allocator | Input requests = [ 2 -> [ 0@0 2@0 3@0 ]  6 -> [ 32@0 34@0 35@0 ]  9 -> [ 36@0 38@0 39@0 ]  10 -> [ 32@0 34@0 35@0 ]  14 -> [ 44@0 45@0 46@0 47@0 ]  16 -> [ 36@0 38@0 39@0 ]  18 -> [ 57@0 58@0 59@0 ]  21 -> [ 53@0 54@0 55@0 ]  22 -> [ 40@0 42@0 43@0 ]  24 -> [ 36@0 38@0 39@0 ]  26 -> [ 60@0 61@0 62@0 63@0 ]  30 -> [ 60@0 61@0 62@0 63@0 ]  ], output requests = [ 0 -> [ 2@0 ]  2 -> [ 2@0 ]  3 -> [ 2@0 ]  32 -> [ 6@0 10@0 ]  34 -> [ 6@0 10@0 ]  35 -> [ 6@0 10@0 ]  36 -> [ 9@0 16@0 24@0 ]  38 -> [ 9@0 16@0 24@0 ]  39 -> [ 9@0 16@0 24@0 ]  40 -> [ 22@0 ]  42 -> [ 22@0 ]  43 -> [ 22@0 ]  44 -> [ 14@0 ]  45 -> [ 14@0 ]  46 -> [ 14@0 ]  47 -> [ 14@0 ]  53 -> [ 21@0 ]  54 -> [ 21@0 ]  55 -> [ 21@0 ]  57 -> [ 18@0 ]  58 -> [ 18@0 ]  59 -> [ 18@0 ]  60 -> [ 26@0 30@0 ]  61 -> [ 26@0 30@0 ]  62 -> [ 26@0 30@0 ]  63 -> [ 26@0 30@0 ]  ].
4 | network_0/router_level3_0/vc_allocator | Input grants = [ 2 -> 0  6 -> 32  14 -> 44  16 -> 36  18 -> 57  21 -> 53  22 -> 40  26 -> 60  ], output grants = [ 0 -> 2  32 -> 6  36 -> 16  40 -> 22  44 -> 14  53 -> 21  57 -> 18  60 -> 26  ].
4 | network_0/router_level3_0 | Assigning VC 0 at output 9 to VC 0 at input 4.
4 | network_0/router_level3_0 | VC allocation failed for VC 0 at input 6.
4 | network_0/router_level3_0 | Beginning crossbar traversal for flit 1 from input 1.0 to output 8.0.
4 | network_0/router_level3_0 | Beginning crossbar traversal for flit 2 from input 2.0 to output 10.0.
4 | network_0/router_level3_0 | Beginning crossbar traversal for flit 3 from input 3.0 to output 9.0.
4 | network_0/router_level3_0 | Beginning crossbar traversal for flit 5 from input 5.0 to output 15.0.
4 | network_0/router_level3_0 | Beginning crossbar traversal for flit 7 from input 7.0 to output 12.0.
4 | network_0/router_level3_0 | Completed VC allocation for VC 0 at input 4 (front: 4).
4 | network_0/router_level3_0 |   Acquiring assigned VC 0 at output 9.
4 | network_0/router_level3_0/buf_4/vc_0 | Changing state from vc_alloc to active.
4 | network_0/router_level3_0 | Completed VC allocation for VC 0 at input 6 (front: 6).
4 | network_0/router_level3_0 |   No output VC allocated.
4 | network_0/router_level3_0 | Completed crossbar traversal for flit 1 from input 1.0 to output 8.0.
4 | network_0/router_level3_0 | Buffering flit 1 at output 8.
4 | network_0/router_level3_0 | Completed crossbar traversal for flit 2 from input 2.0 to output 10.0.
4 | network_0/router_level3_0 | Buffering flit 2 at output 10.
4 | network_0/router_level3_0 | Completed crossbar traversal for flit 3 from input 3.0 to output 9.0.
4 | network_0/router_level3_0 | Buffering flit 3 at output 9.
4 | network_0/router_level3_0 | Completed crossbar traversal for flit 5 from input 5.0 to output 15.0.
4 | network_0/router_level3_0 | Buffering flit 5 at output 15.
4 | network_0/router_level3_0 | Completed crossbar traversal for flit 7 from input 7.0 to output 12.0.
4 | network_0/router_level3_0 | Buffering flit 7 at output 12.
4 | network_0/router_level3_1 | Beginning crossbar traversal for flit 8 from input 0.0 to output 8.0.
4 | network_0/router_level3_1 | Beginning crossbar traversal for flit 9 from input 1.0 to output 11.0.
4 | network_0/router_level3_1 | Beginning crossbar traversal for flit 10 from input 2.0 to output 15.0.
4 | network_0/router_level3_1 | Completed crossbar traversal for flit 8 from input 0.0 to output 8.0.
4 | network_0/router_level3_1 | Buffering flit 8 at output 8.
4 | network_0/router_level3_1 | Completed crossbar traversal for flit 9 from input 1.0 to output 11.0.
4 | network_0/router_level3_1 | Buffering flit 9 at output 11.
4 | network_0/router_level3_1 | Completed crossbar traversal for flit 10 from input 2.0 to output 15.0.
4 | network_0/router_level3_1 | Buffering flit 10 at output 15.
4 | network_0/router_level3_0 | Sending flit 1 to channel at output 8.
4 | network_0/router_level3_0 | Sending flit 3 to channel at output 9.
4 | network_0/router_level3_0 | Sending flit 2 to channel at output 10.
4 | network_0/router_level3_0 | Sending flit 7 to channel at output 12.
4 | network_0/router_level3_0 | Sending flit 5 to channel at output 15.
4 | network_0/router_level3_1 | Sending flit 8 to channel at output 8.
4 | network_0/router_level3_1 | Sending flit 9 to channel at output 11.
4 | network_0/router_level3_1 | Sending flit 10 to channel at output 15.
5 | network_0/network_0_fchan_20480 | Beginning channel traversal for flit 1 with delay 1.
5 | network_0/network_0_fchan_20481 | Beginning channel traversal for flit 3 with delay 1.
5 | network_0/network_0_fchan_20482 | Beginning channel traversal for flit 2 with delay 1.
5 | network_0/network_0_fchan_20484 | Beginning channel traversal for flit 7 with delay 1.
5 | network_0/network_0_fchan_20487 | Beginning channel traversal for flit 5 with delay 1.
5 | network_0/network_0_fchan_20488 | Beginning channel traversal for flit 8 with delay 1.
5 | network_0/network_0_fchan_20491 | Beginning channel traversal for flit 9 with delay 1.
5 | network_0/network_0_fchan_20495 | Beginning channel traversal for flit 10 with delay 1.
5 | network_0/router_level3_0 | Beginning VC allocation for VC 0 at input 6 (front: 6).
5 | network_0/router_level3_0 |   VC 0 at output 9 is in use by VC 0 at input 4 (front flit: 4).
5 | network_0/router_level3_0 |   Requesting VC 1 at output 9 (in_pri: 0, out_pri: 0).
5 | network_0/router_level3_0 |   Requesting VC 2 at output 9 (in_pri: 0, out_pri: 0).
5 | network_0/router_level3_0 |   Requesting VC 3 at output 9 (in_pri: 0, out_pri: 0).
5 | network_0/router_level3_0/vc_allocator | Input requests = [ 3 -> [ 1@0 2@0 3@0 ]  7 -> [ 52@0 54@0 55@0 ]  9 -> [ 37@0 38@0 39@0 ]  10 -> [ 33@0 34@0 35@0 ]  11 -> [ 33@0 34@0 35@0 ]  15 -> [ 52@0 54@0 55@0 ]  19 -> [ 37@0 38@0 39@0 ]  23 -> [ 41@0 42@0 43@0 ]  24 -> [ 37@0 38@0 39@0 ]  27 -> [ 52@0 54@0 55@0 ]  30 -> [ 61@0 62@0 63@0 ]  31 -> [ 37@0 38@0 39@0 ]  ], output requests = [ 1 -> [ 3@0 ]  2 -> [ 3@0 ]  3 -> [ 3@0 ]  33 -> [ 10@0 11@0 ]  34 -> [ 10@0 11@0 ]  35 -> [ 10@0 11@0 ]  37 -> [ 9@0 19@0 24@0 31@0 ]  38 -> [ 9@0 19@0 24@0 31@0 ]  39 -> [ 9@0 19@0 24@0 31@0 ]  41 -> [ 23@0 ]  42 -> [ 23@0 ]  43 -> [ 23@0 ]  52 -> [ 7@0 15@0 27@0 ]  54 -> [ 7@0 15@0 27@0 ]  55 -> [ 7@0 15@0 27@0 ]  61 -> [ 30@0 ]  62 -> [ 30@0 ]  63 -> [ 30@0 ]  ].
5 | network_0/router_level3_0/vc_allocator | Input grants = [ 3 -> 1  9 -> 37  10 -> 33  23 -> 41  27 -> 52  30 -> 61  ], output grants = [ 1 -> 3  33 -> 10  37 -> 9  41 -> 23  52 -> 27  61 -> 30  ].
5 | network_0/router_level3_0 | VC allocation failed for VC 0 at input 6.
5 | network_0/router_level3_0 | Beginning switch allocation for VC 0 at input 4 (front: 4).
5 | network_0/router_level3_0 |   Requesting output 9.0 (non-spec, pri: 0).
5 | network_0/router_level3_0/sw_allocator | Input requests = [ 0 -> [ 0@0 ]  1 -> [ 8@0 ]  3 -> [ 11@0 ]  4 -> [ 9@0 14@0 ]  5 -> [ 10@0 13@0 ]  6 -> [ 15@0 ]  ], output requests = [ 0 -> [ 0@0 ]  8 -> [ 1@0 ]  9 -> [ 4@0 ]  10 -> [ 5@0 ]  11 -> [ 3@0 ]  13 -> [ 5@0 ]  14 -> [ 4@0 ]  15 -> [ 6@0 ]  ].
5 | network_0/router_level3_0/sw_allocator | Input grants = [ 0 -> 0  1 -> 8  3 -> 11  4 -> 14  5 -> 10  6 -> 15  ], output grants = [ 0 -> 0  8 -> 1  10 -> 5  11 -> 3  14 -> 4  15 -> 6  ].
5 | network_0/router_level3_0 | Switch allocation failed for VC 0 at input 4: Granted to VC 2.
5 | network_0/router_level3_0 | Completed VC allocation for VC 0 at input 6 (front: 6).
5 | network_0/router_level3_0 |   No output VC allocated.
5 | network_0/router_level3_0 | Completed switch allocation for VC 0 at input 4 (front: 4).
5 | network_0/router_level3_0 |   No output port allocated.
5 | network_0/network_0_fchan_20480 | Completed channel traversal for flit 1.
5 | network_0/network_0_fchan_20481 | Completed channel traversal for flit 3.
5 | network_0/network_0_fchan_20482 | Completed channel traversal for flit 2.
5 | network_0/network_0_fchan_20484 | Completed channel traversal for flit 7.
5 | network_0/network_0_fchan_20487 | Completed channel traversal for flit 5.
5 | network_0/network_0_fchan_20488 | Completed channel traversal for flit 8.
5 | network_0/network_0_fchan_20491 | Completed channel traversal for flit 9.
5 | network_0/network_0_fchan_20495 | Completed channel traversal for flit 10.
6 | network_0/router_level2_0 | Received flit 1 from channel at input 0.
6 | network_0/router_level2_0 | Received flit 8 from channel at input 1.
6 | network_0/router_level2_1 | Received flit 3 from channel at input 0.
6 | network_0/router_level2_2 | Received flit 2 from channel at input 0.
6 | network_0/router_level2_3 | Received flit 9 from channel at input 1.
6 | network_0/router_level2_4 | Received flit 7 from channel at input 0.
6 | network_0/router_level2_7 | Received flit 5 from channel at input 0.
6 | network_0/router_level2_7 | Received flit 10 from channel at input 1.
6 | network_0/router_level2_0 | Adding flit 1 to VC 0 at input 0 (state: idle, empty).
6 | network_0/router_level2_0 | Using precomputed lookahead routing information for VC 0 at input 0 (front: 1).
6 | network_0/router_level2_0/buf_0/vc_0 | Changing state from idle to vc_alloc.
6 | network_0/router_level2_0 | Adding flit 8 to VC 0 at input 1 (state: idle, empty).
6 | network_0/router_level2_0 | Using precomputed lookahead routing information for VC 0 at input 1 (front: 8).
6 | network_0/router_level2_0/buf_1/vc_0 | Changing state from idle to vc_alloc.
6 | network_0/router_level2_0 | Beginning VC allocation for VC 0 at input 0 (front: 1).
6 | network_0/router_level2_0 |   Requesting VC 0 at output 15 (in_pri: 0, out_pri: 0).
6 | network_0/router_level2_0 |   Requesting VC 1 at output 15 (in_pri: 0, out_pri: 0).
6 | network_0/router_level2_0 |   Requesting VC 2 at output 15 (in_pri: 0, out_pri: 0).
6 | network_0/router_level2_0 |   Requesting VC 3 at output 15 (in_pri: 0, out_pri: 0).
6 | network_0/router_level2_0 | Beginning VC allocation for VC 0 at input 1 (front: 8).
6 | network_0/router_level2_0 |   Requesting VC 0 at output 12 (in_pri: 0, out_pri: 0).
6 | network_0/router_level2_0 |   Requesting VC 1 at output 12 (in_pri: 0, out_pri: 0).
6 | network_0/router_level2_0 |   Requesting VC 2 at output 12 (in_pri: 0, out_pri: 0).
6 | network_0/router_level2_0 |   Requesting VC 3 at output 12 (in_pri: 0, out_pri: 0).
6 | network_0/router_level2_0/vc_allocator | Input requests = [ 0 -> [ 60@0 61@0 62@0 63@0 ]  4 -> [ 48@0 49@0 50@0 51@0 ]  8 -> [ 40@0 41@0 42@0 43@0 ]  12 -> [ 60@0 61@0 62@0 63@0 ]  16 -> [ 48@0 49@0 50@0 51@0 ]  24 -> [ 40@0 41@0 42@0 43@0 ]  28 -> [ 48@0 49@0 50@0 51@0 ]  ], output requests = [ 40 -> [ 8@0 24@0 ]  41 -> [ 8@0 24@0 ]  42 -> [ 8@0 24@0 ]  43 -> [ 8@0 24@0 ]  48 -> [ 4@0 16@0 28@0 ]  49 -> [ 4@0 16@0 28@0 ]  50 -> [ 4@0 16@0 28@0 ]  51 -> [ 4@0 16@0 28@0 ]  60 -> [ 0@0 12@0 ]  61 -> [ 0@0 12@0 ]  62 -> [ 0@0 12@0 ]  63 -> [ 0@0 12@0 ]  ].
6 | network_0/router_level2_0/vc_allocator | Input grants = [ 0 -> 60  4 -> 48  8 -> 40  ], output grants = [ 40 -> 8  48 -> 4  60 -> 0  ].
6 | network_0/router_level2_0 | Assigning VC 0 at output 15 to VC 0 at input 0.
6 | network_0/router_level2_0 | Assigning VC 0 at output 12 to VC 0 at input 1.
6 | network_0/router_level2_0 | Completed VC allocation for VC 0 at input 0 (front: 1).
6 | network_0/router_level2_0 |   Acquiring assigned VC 0 at output 15.
6 | network_0/router_level2_0/buf_0/vc_0 | Changing state from vc_alloc to active.
6 | network_0/router_level2_0 | Completed VC allocation for VC 0 at input 1 (front: 8).
6 | network_0/router_level2_0 |   Acquiring assigned VC 0 at output 12.
6 | network_0/router_level2_0/buf_1/vc_0 | Changing state from vc_alloc to active.
6 | network_0/router_level2_1 | Adding flit 3 to VC 0 at input 0 (state: idle, empty).
6 | network_0/router_level2_1 | Using precomputed lookahead routing information for VC 0 at input 0 (front: 3).
6 | network_0/router_level2_1/buf_0/vc_0 | Changing state from idle to vc_alloc.
6 | network_0/router_level2_1 | Beginning VC allocation for VC 0 at input 0 (front: 3).
6 | network_0/router_level2_1 |   Requesting VC 0 at output 11 (in_pri: 0, out_pri: 0).
6 | network_0/router_level2_1 |   Requesting VC 1 at output 11 (in_pri: 0, out_pri: 0).
6 | network_0/router_level2_1 |   Requesting VC 2 at output 11 (in_pri: 0, out_pri: 0).
6 | network_0/router_level2_1 |   Requesting VC 3 at output 11 (in_pri: 0, out_pri: 0).
6 | network_0/router_level2_1/vc_allocator | Input requests = [ 0 -> [ 44@0 45@0 46@0 47@0 ]  4 -> [ 48@0 49@0 50@0 51@0 ]  8 -> [ 40@0 41@0 42@0 43@0 ]  20 -> [ 40@0 41@0 42@0 43@0 ]  28 -> [ 52@0 53@0 54@0 55@0 ]  ], output requests = [ 40 -> [ 8@0 20@0 ]  41 -> [ 8@0 20@0 ]  42 -> [ 8@0 20@0 ]  43 -> [ 8@0 20@0 ]  44 -> [ 0@0 ]  45 -> [ 0@0 ]  46 -> [ 0@0 ]  47 -> [ 0@0 ]  48 -> [ 4@0 ]  49 -> [ 4@0 ]  50 -> [ 4@0 ]  51 -> [ 4@0 ]  52 -> [ 28@0 ]  53 -> [ 28@0 ]  54 -> [ 28@0 ]  55 -> [ 28@0 ]  ].
6 | network_0/router_level2_1/vc_allocator | Input grants = [ 0 -> 44  4 -> 48  8 -> 40  28 -> 52  ], output grants = [ 40 -> 8  44 -> 0  48 -> 4  52 -> 28  ].
6 | network_0/router_level2_1 | Assigning VC 0 at output 11 to VC 0 at input 0.
6 | network_0/router_level2_1 | Completed VC allocation for VC 0 at input 0 (front: 3).
6 | network_0/router_level2_1 |   Acquiring assigned VC 0 at output 11.
6 | network_0/router_level2_1/buf_0/vc_0 | Changing state from vc_alloc to active.
6 | network_0/router_level2_2 | Adding flit 2 to VC 0 at input 0 (state: idle, empty).
6 | network_0/router_level2_2 | Using precomputed lookahead routing information for VC 0 at input 0 (front: 2).
6 | network_0/router_level2_2/buf_0/vc_0 | Changing state from idle to vc_alloc.
6 | network_0/router_level2_2 | Beginning VC allocation for VC 0 at input 0 (front: 2).
6 | network_0/router_level2_2 |   Requesting VC 0 at output 9 (in_pri: 0, out_pri: 0).
6 | network_0/router_level2_2 |   Requesting VC 1 at output 9 (in_pri: 0, out_pri: 0).
6 | network_0/router_level2_2 |   Requesting VC 2 at output 9 (in_pri: 0, out_pri: 0).
6 | network_0/router_level2_2 |   Requesting VC 3 at output 9 (in_pri: 0, out_pri: 0).
6 | network_0/router_level2_2/vc_allocator | Input requests = [ 0 -> [ 36@0 37@0 38@0 39@0 ]  4 -> [ 52@0 53@0 54@0 55@0 ]  12 -> [ 32@0 33@0 34@0 35@0 ]  20 -> [ 44@0 45@0 46@0 47@0 ]  24 -> [ 32@0 33@0 34@0 35@0 ]  28 -> [ 40@0 41@0 42@0 43@0 ]  ], output requests = [ 32 -> [ 12@0 24@0 ]  33 -> [ 12@0 24@0 ]  34 -> [ 12@0 24@0 ]  35 -> [ 12@0 24@0 ]  36 -> [ 0@0 ]  37 -> [ 0@0 ]  38 -> [ 0@0 ]  39 -> [ 0@0 ]  40 -> [ 28@0 ]  41 -> [ 28@0 ]  42 -> [ 28@0 ]  43 -> [ 28@0 ]  44 -> [ 20@0 ]  45 -> [ 20@0 ]  46 -> [ 20@0 ]  47 -> [ 20@0 ]  52 -> [ 4@0 ]  53 -> [ 4@0 ]  54 -> [ 4@0 ]  55 -> [ 4@0 ]  ].
6 | network_0/router_level2_2/vc_allocator | Input grants = [ 0 -> 36  4 -> 52  12 -> 32  20 -> 44  28 -> 40  ], output grants = [ 32 -> 12  36 -> 0  40 -> 28  44 -> 20  52 -> 4  ].
6 | network_0/router_level2_2 | Assigning VC 0 at output 9 to VC 0 at input 0.
6 | network_0/router_level2_2 | Completed VC allocation for VC 0 at input 0 (front: 2).
6 | network_0/router_level2_2 |   Acquiring assigned VC 0 at output 9.
6 | network_0/router_level2_2/buf_0/vc_0 | Changing state from vc_alloc to active.
6 | network_0/router_level2_3 | Adding flit 9 to VC 0 at input 1 (state: idle, empty).
6 | network_0/router_level2_3 | Using precomputed lookahead routing information for VC 0 at input 1 (front: 9).
6 | network_0/router_level2_3/buf_1/vc_0 | Changing state from idle to vc_alloc.
6 | network_0/router_level2_3 | Beginning VC allocation for VC 0 at input 1 (front: 9).
6 | network_0/router_level2_3 |   Requesting VC 0 at output 15 (in_pri: 0, out_pri: 0).
6 | network_0/router_level2_3 |   Requesting VC 1 at output 15 (in_pri: 0, out_pri: 0).
6 | network_0/router_level2_3 |   Requesting VC 2 at output 15 (in_pri: 0, out_pri: 0).
6 | network_0/router_level2_3 |   Requesting VC 3 at output 15 (in_pri: 0, out_pri: 0).
6 | network_0/router_level2_3/vc_allocator | Input requests = [ 4 -> [ 60@0 61@0 62@0 63@0 ]  8 -> [ 52@0 53@0 54@0 55@0 ]  16 -> [ 60@0 61@0 62@0 63@0 ]  20 -> [ 44@0 45@0 46@0 47@0 ]  24 -> [ 44@0 45@0 46@0 47@0 ]  28 -> [ 48@0 49@0 50@0 51@0 ]  ], output requests = [ 44 -> [ 20@0 24@0 ]  45 -> [ 20@0 24@0 ]  46 -> [ 20@0 24@0 ]  47 -> [ 20@0 24@0 ]  48 -> [ 28@0 ]  49 -> [ 28@0 ]  50 -> [ 28@0 ]  51 -> [ 28@0 ]  52 -> [ 8@0 ]  53 -> [ 8@0 ]  54 -> [ 8@0 ]  55 -> [ 8@0 ]  60 -> [ 4@0 16@0 ]  61 -> [ 4@0 16@0 ]  62 -> [ 4@0 16@0 ]  63 -> [ 4@0 16@0 ]  ].
6 | network_0/router_level2_3/vc_allocator | Input grants = [ 4 -> 60  8 -> 52  20 -> 44  28 -> 48  ], output grants = [ 44 -> 20  48 -> 28  52 -> 8  60 -> 4  ].
6 | network_0/router_level2_3 | Assigning VC 0 at output 15 to VC 0 at input 1.
6 | network_0/router_level2_3 | Completed VC allocation for VC 0 at input 1 (front: 9).
6 | network_0/router_level2_3 |   Acquiring assigned VC 0 at output 15.
6 | network_0/router_level2_3/buf_1/vc_0 | Changing state from vc_alloc to active.
6 | network_0/router_level2_4 | Adding flit 7 to VC 0 at input 0 (state: idle, empty).
6 | network_0/router_level2_4 | Using precomputed lookahead routing information for VC 0 at input 0 (front: 7).
6 | network_0/router_level2_4/buf_0/vc_0 | Changing state from idle to vc_alloc.
6 | network_0/router_level2_4 | Beginning VC allocation for VC 0 at input 0 (front: 7).
6 | network_0/router_level2_4 |   Requesting VC 0 at output 14 (in_pri: 0, out_pri: 0).
6 | network_0/router_level2_4 |   Requesting VC 1 at output 14 (in_pri: 0, out_pri: 0).
6 | network_0/router_level2_4 |   Requesting VC 2 at output 14 (in_pri: 0, out_pri: 0).
6 | network_0/router_level2_4 |   Requesting VC 3 at output 14 (in_pri: 0, out_pri: 0).
6 | network_0/router_level2_4/vc_allocator | Input requests = [ 0 -> [ 56@0 57@0 58@0 59@0 ]  8 -> [ 52@0 53@0 54@0 55@0 ]  12 -> [ 36@0 37@0 38@0 39@0 ]  16 -> [ 40@0 41@0 42@0 43@0 ]  20 -> [ 56@0 57@0 58@0 59@0 ]  24 -> [ 40@0 41@0 42@0 43@0 ]  ], output requests = [ 36 -> [ 12@0 ]  37 -> [ 12@0 ]  38 -> [ 12@0 ]  39 -> [ 12@0 ]  40 -> [ 16@0 24@0 ]  41 -> [ 16@0 24@0 ]  42 -> [ 16@0 24@0 ]  43 -> [ 16@0 24@0 ]  52 -> [ 8@0 ]  53 -> [ 8@0 ]  54 -> [ 8@0 ]  55 -> [ 8@0 ]  56 -> [ 0@0 20@0 ]  57 -> [ 0@0 20@0 ]  58 -> [ 0@0 20@0 ]  59 -> [ 0@0 20@0 ]  ].
6 | network_0/router_level2_4/vc_allocator | Input grants = [ 0 -> 56  8 -> 52  12 -> 36  16 -> 40  ], output grants = [ 36 -> 12  40 -> 16  52 -> 8  56 -> 0  ].
6 | network_0/router_level2_4 | Assigning VC 0 at output 14 to VC 0 at input 0.
6 | network_0/router_level2_4 | Completed VC allocation for VC 0 at input 0 (front: 7).
6 | network_0/router_level2_4 |   Acquiring assigned VC 0 at output 14.
6 | network_0/router_level2_4/buf_0/vc_0 | Changing state from vc_alloc to active.
6 | network_0/router_level2_7 | Adding flit 5 to VC 0 at input 0 (state: idle, empty).
6 | network_0/router_level2_7 | Using precomputed lookahead routing information for VC 0 at input 0 (front: 5).
6 | network_0/router_level2_7/buf_0/vc_0 | Changing state from idle to vc_alloc.
6 | network_0/router_level2_7 | Adding flit 10 to VC 0 at input 1 (state: idle, empty).
6 | network_0/router_level2_7 | Using precomputed lookahead routing information for VC 0 at input 1 (front: 10).
6 | network_0/router_level2_7/buf_1/vc_0 | Changing state from idle to vc_alloc.
6 | network_0/router_level2_7 | Beginning VC allocation for VC 0 at input 0 (front: 5).
6 | network_0/router_level2_7 |   Requesting VC 0 at output 12 (in_pri: 0, out_pri: 0).
6 | network_0/router_level2_7 |   Requesting VC 1 at output 12 (in_pri: 0, out_pri: 0).
6 | network_0/router_level2_7 |   Requesting VC 2 at output 12 (in_pri: 0, out_pri: 0).
6 | network_0/router_level2_7 |   Requesting VC 3 at output 12 (in_pri: 0, out_pri: 0).
6 | network_0/router_level2_7 | Beginning VC allocation for VC 0 at input 1 (front: 10).
6 | network_0/router_level2_7 |   Requesting VC 0 at output 14 (in_pri: 0, out_pri: 0).
6 | network_0/router_level2_7 |   Requesting VC 1 at output 14 (in_pri: 0, out_pri: 0).
6 | network_0/router_level2_7 |   Requesting VC 2 at output 14 (in_pri: 0, out_pri: 0).
6 | network_0/router_level2_7 |   Requesting VC 3 at output 14 (in_pri: 0, out_pri: 0).
6 | network_0/router_level2_7/vc_allocator | Input requests = [ 0 -> [ 48@0 49@0 50@0 51@0 ]  4 -> [ 56@0 57@0 58@0 59@0 ]  12 -> [ 44@0 45@0 46@0 47@0 ]  24 -> [ 40@0 41@0 42@0 43@0 ]  28 -> [ 60@0 61@0 62@0 63@0 ]  ], output requests = [ 40 -> [ 24@0 ]  41 -> [ 24@0 ]  42 -> [ 24@0 ]  43 -> [ 24@0 ]  44 -> [ 12@0 ]  45 -> [ 12@0 ]  46 -> [ 12@0 ]  47 -> [ 12@0 ]  48 -> [ 0@0 ]  49 -> [ 0@0 ]  50 -> [ 0@0 ]  51 -> [ 0@0 ]  56 -> [ 4@0 ]  57 -> [ 4@0 ]  58 -> [ 4@0 ]  59 -> [ 4@0 ]  60 -> [ 28@0 ]  61 -> [ 28@0 ]  62 -> [ 28@0 ]  63 -> [ 28@0 ]  ].
6 | network_0/router_level2_7/vc_allocator | Input grants = [ 0 -> 48  4 -> 56  12 -> 44  24 -> 40  28 -> 60  ], output grants = [ 40 -> 24  44 -> 12  48 -> 0  56 -> 4  60 -> 28  ].
6 | network_0/router_level2_7 | Assigning VC 0 at output 12 to VC 0 at input 0.
6 | network_0/router_level2_7 | Assigning VC 0 at output 14 to VC 0 at input 1.
6 | network_0/router_level2_7 | Completed VC allocation for VC 0 at input 0 (front: 5).
6 | network_0/router_level2_7 |   Acquiring assigned VC 0 at output 12.
6 | network_0/router_level2_7/buf_0/vc_0 | Changing state from vc_alloc to active.
6 | network_0/router_level2_7 | Completed VC allocation for VC 0 at input 1 (front: 10).
6 | network_0/router_level2_7 |   Acquiring assigned VC 0 at output 14.
6 | network_0/router_level2_7/buf_1/vc_0 | Changing state from vc_alloc to active.
6 | network_0/router_level3_0 | Beginning VC allocation for VC 0 at input 6 (front: 6).
6 | network_0/router_level3_0 |   VC 0 at output 9 is in use by VC 0 at input 4 (front flit: 4).
6 | network_0/router_level3_0 |   VC 1 at output 9 is in use by VC 1 at input 2 (front flit: 4098).
6 | network_0/router_level3_0 |   Requesting VC 2 at output 9 (in_pri: 0, out_pri: 0).
6 | network_0/router_level3_0 |   Requesting VC 3 at output 9 (in_pri: 0, out_pri: 0).
6 | network_0/router_level3_0/vc_allocator | Input requests = [ 0 -> [ 0@0 2@0 3@0 ]  4 -> [ 38@0 39@0 ]  7 -> [ 54@0 55@0 ]  8 -> [ 38@0 39@0 ]  11 -> [ 32@0 34@0 35@0 ]  12 -> [ 44@0 45@0 46@0 47@0 ]  15 -> [ 54@0 55@0 ]  19 -> [ 38@0 39@0 ]  20 -> [ 48@0 49@0 50@0 51@0 ]  24 -> [ 38@0 39@0 ]  28 -> [ 56@0 57@0 58@0 59@0 ]  31 -> [ 38@0 39@0 ]  ], output requests = [ 0 -> [ 0@0 ]  2 -> [ 0@0 ]  3 -> [ 0@0 ]  32 -> [ 11@0 ]  34 -> [ 11@0 ]  35 -> [ 11@0 ]  38 -> [ 4@0 8@0 19@0 24@0 31@0 ]  39 -> [ 4@0 8@0 19@0 24@0 31@0 ]  44 -> [ 12@0 ]  45 -> [ 12@0 ]  46 -> [ 12@0 ]  47 -> [ 12@0 ]  48 -> [ 20@0 ]  49 -> [ 20@0 ]  50 -> [ 20@0 ]  51 -> [ 20@0 ]  54 -> [ 7@0 15@0 ]  55 -> [ 7@0 15@0 ]  56 -> [ 28@0 ]  57 -> [ 28@0 ]  58 -> [ 28@0 ]  59 -> [ 28@0 ]  ].
6 | network_0/router_level3_0/vc_allocator | Input grants = [ 0 -> 2  4 -> 38  7 -> 54  11 -> 32  12 -> 44  20 -> 48  28 -> 56  ], output grants = [ 2 -> 0  32 -> 11  38 -> 4  44 -> 12  48 -> 20  54 -> 7  56 -> 28  ].
6 | network_0/router_level3_0 | VC allocation failed for VC 0 at input 6.
6 | network_0/router_level3_0 | Beginning switch allocation for VC 0 at input 4 (front: 4).
6 | network_0/router_level3_0 |   Requesting output 9.0 (non-spec, pri: 0).
6 | network_0/router_level3_0/sw_allocator | Input requests = [ 0 -> [ 0@0 ]  2 -> [ 8@0 9@0 ]  4 -> [ 9@0 ]  5 -> [ 10@0 13@0 ]  6 -> [ 13@0 ]  7 -> [ 15@0 ]  ], output requests = [ 0 -> [ 0@0 ]  8 -> [ 2@0 ]  9 -> [ 2@0 4@0 ]  10 -> [ 5@0 ]  13 -> [ 5@0 6@0 ]  15 -> [ 7@0 ]  ].
6 | network_0/router_level3_0/sw_allocator | Input grants = [ 0 -> 0  2 -> 8  4 -> 9  5 -> 13  7 -> 15  ], output grants = [ 0 -> 0  8 -> 2  9 -> 4  13 -> 5  15 -> 7  ].
6 | network_0/router_level3_0 | Assigning output 9.0 to VC 0 at input 4.0.
6 | network_0/router_level3_0 | Completed VC allocation for VC 0 at input 6 (front: 6).
6 | network_0/router_level3_0 |   No output VC allocated.
6 | network_0/router_level3_0 | Completed switch allocation for VC 0 at input 4 (front: 4).
6 | network_0/router_level3_0 |   Scheduling switch connection from input 4.0 to output 9.0.
6 | network_0/router_level3_0 | Updating lookahead routing information for flit 4.
7 | network_0/router_level2_0 | Beginning switch allocation for VC 0 at input 0 (front: 1).
7 | network_0/router_level2_0 |   Requesting output 15.0 (non-spec, pri: 0).
7 | network_0/router_level2_0 | Beginning switch allocation for VC 0 at input 1 (front: 8).
7 | network_0/router_level2_0 |   Requesting output 12.0 (non-spec, pri: 0).
7 | network_0/router_level2_0/sw_allocator | Input requests = [ 0 -> [ 15@0 ]  1 -> [ 12@0 ]  2 -> [ 10@0 ]  ], output requests = [ 10 -> [ 2@0 ]  12 -> [ 1@0 ]  15 -> [ 0@0 ]  ].
7 | network_0/router_level2_0/sw_allocator | Input grants = [ 0 -> 15  1 -> 12  2 -> 10  ], output grants = [ 10 -> 2  12 -> 1  15 -> 0  ].
7 | network_0/router_level2_0 | Assigning output 15.0 to VC 0 at input 0.0.
7 | network_0/router_level2_0 | Assigning output 12.0 to VC 0 at input 1.0.
7 | network_0/router_level2_0 | Completed switch allocation for VC 0 at input 0 (front: 1).
7 | network_0/router_level2_0 |   Scheduling switch connection from input 0.0 to output 15.0.
7 | network_0/router_level2_0 | Updating lookahead routing information for flit 1.
7 | network_0/router_level2_0 | Completed switch allocation for VC 0 at input 1 (front: 8).
7 | network_0/router_level2_0 |   Scheduling switch connection from input 1.0 to output 12.0.
7 | network_0/router_level2_0 | Updating lookahead routing information for flit 8.
7 | network_0/router_level2_1 | Beginning switch allocation for VC 0 at input 0 (front: 3).
7 | network_0/router_level2_1 |   Requesting output 11.0 (non-spec, pri: 0).
7 | network_0/router_level2_1/sw_allocator | Input requests = [ 0 -> [ 11@0 ]  1 -> [ 12@0 ]  2 -> [ 10@0 ]  7 -> [ 13@0 ]  ], output requests = [ 10 -> [ 2@0 ]  11 -> [ 0@0 ]  12 -> [ 1@0 ]  13 -> [ 7@0 ]  ].
7 | network_0/router_level2_1/sw_allocator | Input grants = [ 0 -> 11  1 -> 12  2 -> 10  7 -> 13  ], output grants = [ 10 -> 2  11 -> 0  12 -> 1  13 -> 7  ].
7 | network_0/router_level2_1 | Assigning output 11.0 to VC 0 at input 0.0.
7 | network_0/router_level2_1 | Completed switch allocation for VC 0 at input 0 (front: 3).
7 | network_0/router_level2_1 |   Scheduling switch connection from input 0.0 to output 11.0.
7 | network_0/router_level2_1 | Updating lookahead routing information for flit 3.
7 | network_0/router_level2_2 | Beginning switch allocation for VC 0 at input 0 (front: 2).
7 | network_0/router_level2_2 |   Requesting output 9.0 (non-spec, pri: 0).
7 | network_0/router_level2_2/sw_allocator | Input requests = [ 0 -> [ 9@0 ]  1 -> [ 13@0 ]  3 -> [ 8@0 ]  5 -> [ 11@0 ]  7 -> [ 10@0 ]  ], output requests = [ 8 -> [ 3@0 ]  9 -> [ 0@0 ]  10 -> [ 7@0 ]  11 -> [ 5@0 ]  13 -> [ 1@0 ]  ].
7 | network_0/router_level2_2/sw_allocator | Input grants = [ 0 -> 9  1 -> 13  3 -> 8  5 -> 11  7 -> 10  ], output grants = [ 8 -> 3  9 -> 0  10 -> 7  11 -> 5  13 -> 1  ].
7 | network_0/router_level2_2 | Assigning output 9.0 to VC 0 at input 0.0.
7 | network_0/router_level2_2 | Completed switch allocation for VC 0 at input 0 (front: 2).
7 | network_0/router_level2_2 |   Scheduling switch connection from input 0.0 to output 9.0.
7 | network_0/router_level2_2 | Updating lookahead routing information for flit 2.
7 | network_0/router_level2_3 | Beginning switch allocation for VC 0 at input 1 (front: 9).
7 | network_0/router_level2_3 |   Requesting output 15.0 (non-spec, pri: 0).
7 | network_0/router_level2_3/sw_allocator | Input requests = [ 1 -> [ 15@0 ]  2 -> [ 13@0 ]  5 -> [ 11@0 ]  7 -> [ 12@0 ]  ], output requests = [ 11 -> [ 5@0 ]  12 -> [ 7@0 ]  13 -> [ 2@0 ]  15 -> [ 1@0 ]  ].
7 | network_0/router_level2_3/sw_allocator | Input grants = [ 1 -> 15  2 -> 13  5 -> 11  7 -> 12  ], output grants = [ 11 -> 5  12 -> 7  13 -> 2  15 -> 1  ].
7 | network_0/router_level2_3 | Assigning output 15.0 to VC 0 at input 1.0.
7 | network_0/router_level2_3 | Completed switch allocation for VC 0 at input 1 (front: 9).
7 | network_0/router_level2_3 |   Scheduling switch connection from input 1.0 to output 15.0.
7 | network_0/router_level2_3 | Updating lookahead routing information for flit 9.
7 | network_0/router_level2_4 | Beginning switch allocation for VC 0 at input 0 (front: 7).
7 | network_0/router_level2_4 |   Requesting output 14.0 (non-spec, pri: 0).
7 | network_0/router_level2_4/sw_allocator | Input requests = [ 0 -> [ 14@0 ]  2 -> [ 13@0 ]  3 -> [ 9@0 ]  4 -> [ 10@0 ]  ], output requests = [ 9 -> [ 3@0 ]  10 -> [ 4@0 ]  13 -> [ 2@0 ]  14 -> [ 0@0 ]  ].
7 | network_0/router_level2_4/sw_allocator | Input grants = [ 0 -> 14  2 -> 13  3 -> 9  4 -> 10  ], output grants = [ 9 -> 3  10 -> 4  13 -> 2  14 -> 0  ].
7 | network_0/router_level2_4 | Assigning output 14.0 to VC 0 at input 0.0.
7 | network_0/router_level2_4 | Completed switch allocation for VC 0 at input 0 (front: 7).
7 | network_0/router_level2_4 |   Scheduling switch connection from input 0.0 to output 14.0.
7 | network_0/router_level2_4 | Updating lookahead routing information for flit 7.
7 | network_0/router_level2_7 | Beginning switch allocation for VC 0 at input 0 (front: 5).
7 | network_0/router_level2_7 |   Requesting output 12.0 (non-spec, pri: 0).
7 | network_0/router_level2_7 | Beginning switch allocation for VC 0 at input 1 (front: 10).
7 | network_0/router_level2_7 |   Requesting output 14.0 (non-spec, pri: 0).
7 | network_0/router_level2_7/sw_allocator | Input requests = [ 0 -> [ 12@0 ]  1 -> [ 14@0 ]  3 -> [ 11@0 ]  6 -> [ 10@0 ]  7 -> [ 15@0 ]  ], output requests = [ 10 -> [ 6@0 ]  11 -> [ 3@0 ]  12 -> [ 0@0 ]  14 -> [ 1@0 ]  15 -> [ 7@0 ]  ].
7 | network_0/router_level2_7/sw_allocator | Input grants = [ 0 -> 12  1 -> 14  3 -> 11  6 -> 10  7 -> 15  ], output grants = [ 10 -> 6  11 -> 3  12 -> 0  14 -> 1  15 -> 7  ].
7 | network_0/router_level2_7 | Assigning output 12.0 to VC 0 at input 0.0.
7 | network_0/router_level2_7 | Assigning output 14.0 to VC 0 at input 1.0.
7 | network_0/router_level2_7 | Completed switch allocation for VC 0 at input 0 (front: 5).
7 | network_0/router_level2_7 |   Scheduling switch connection from input 0.0 to output 12.0.
7 | network_0/router_level2_7 | Updating lookahead routing information for flit 5.
7 | network_0/router_level2_7 | Completed switch allocation for VC 0 at input 1 (front: 10).
7 | network_0/router_level2_7 |   Scheduling switch connection from input 1.0 to output 14.0.
7 | network_0/router_level2_7 | Updating lookahead routing information for flit 10.
7 | network_0/router_level3_0 | Beginning VC allocation for VC 0 at input 6 (front: 6).
7 | network_0/router_level3_0 |   Requesting VC 0 at output 9 (in_pri: 0, out_pri: 0).
7 | network_0/router_level3_0 |   VC 1 at output 9 is in use by VC 1 at input 2 (front flit: 4098).
7 | network_0/router_level3_0 |   VC 2 at output 9 is in use by VC 0 at input 1 (front flit: 16385).
7 | network_0/router_level3_0 |   Requesting VC 3 at output 9 (in_pri: 0, out_pri: 0).
7 | network_0/router_level3_0/vc_allocator | Input requests = [ 1 -> [ 0@0 1@0 3@0 ]  5 -> [ 33@0 34@0 35@0 ]  8 -> [ 36@0 39@0 ]  13 -> [ 60@0 61@0 62@0 63@0 ]  15 -> [ 53@0 55@0 ]  16 -> [ 40@0 42@0 43@0 ]  17 -> [ 33@0 34@0 35@0 ]  19 -> [ 36@0 39@0 ]  21 -> [ 60@0 61@0 62@0 63@0 ]  24 -> [ 36@0 39@0 ]  25 -> [ 33@0 34@0 35@0 ]  29 -> [ 45@0 46@0 47@0 ]  31 -> [ 36@0 39@0 ]  ], output requests = [ 0 -> [ 1@0 ]  1 -> [ 1@0 ]  3 -> [ 1@0 ]  33 -> [ 5@0 17@0 25@0 ]  34 -> [ 5@0 17@0 25@0 ]  35 -> [ 5@0 17@0 25@0 ]  36 -> [ 8@0 19@0 24@0 31@0 ]  39 -> [ 8@0 19@0 24@0 31@0 ]  40 -> [ 16@0 ]  42 -> [ 16@0 ]  43 -> [ 16@0 ]  45 -> [ 29@0 ]  46 -> [ 29@0 ]  47 -> [ 29@0 ]  53 -> [ 15@0 ]  55 -> [ 15@0 ]  60 -> [ 13@0 21@0 ]  61 -> [ 13@0 21@0 ]  62 -> [ 13@0 21@0 ]  63 -> [ 13@0 21@0 ]  ].
7 | network_0/router_level3_0/vc_allocator | Input grants = [ 1 -> 3  13 -> 60  15 -> 53  16 -> 40  17 -> 33  19 -> 36  29 -> 45  ], output grants = [ 3 -> 1  33 -> 17  36 -> 19  40 -> 16  45 -> 29  53 -> 15  60 -> 13  ].
7 | network_0/router_level3_0 | VC allocation failed for VC 0 at input 6.
7 | network_0/router_level3_0 | Beginning crossbar traversal for flit 4 from input 4.0 to output 9.0.
7 | network_0/router_level3_0 | Completed VC allocation for VC 0 at input 6 (front: 6).
7 | network_0/router_level3_0 |   No output VC allocated.
7 | network_0/router_level3_0 | Completed crossbar traversal for flit 4 from input 4.0 to output 9.0.
7 | network_0/router_level3_0 | Buffering flit 4 at output 9.
7 | network_0/router_level3_0 | Sending flit 4 to channel at output 9.
8 | network_0/network_0_fchan_20481 | Beginning channel traversal for flit 4 with delay 1.
8 | network_0/router_level2_0 | Beginning crossbar traversal for flit 1 from input 0.0 to output 15.0.
8 | network_0/router_level2_0 | Beginning crossbar traversal for flit 8 from input 1.0 to output 12.0.
8 | network_0/router_level2_0 | Completed crossbar traversal for flit 1 from input 0.0 to output 15.0.
8 | network_0/router_level2_0 | Buffering flit 1 at output 15.
8 | network_0/router_level2_0 | Completed crossbar traversal for flit 8 from input 1.0 to output 12.0.
8 | network_0/router_level2_0 | Buffering flit 8 at output 12.
8 | network_0/router_level2_1 | Beginning crossbar traversal for flit 3 from input 0.0 to output 11.0.
8 | network_0/router_level2_1 | Completed crossbar traversal for flit 3 from input 0.0 to output 11.0.
8 | network_0/router_level2_1 | Buffering flit 3 at output 11.
8 | network_0/router_level2_2 | Beginning crossbar traversal for flit 2 from input 0.0 to output 9.0.
8 | network_0/router_level2_2 | Completed crossbar traversal for flit 2 from input 0.0 to output 9.0.
8 | network_0/router_level2_2 | Buffering flit 2 at output 9.
8 | network_0/router_level2_3 | Beginning crossbar traversal for flit 9 from input 1.0 to output 15.0.
8 | network_0/router_level2_3 | Completed crossbar traversal for flit 9 from input 1.0 to output 15.0.
8 | network_0/router_level2_3 | Buffering flit 9 at output 15.
8 | network_0/router_level2_4 | Beginning crossbar traversal for flit 7 from input 0.0 to output 14.0.
8 | network_0/router_level2_4 | Completed crossbar traversal for flit 7 from input 0.0 to output 14.0.
8 | network_0/router_level2_4 | Buffering flit 7 at output 14.
8 | network_0/router_level2_7 | Beginning crossbar traversal for flit 5 from input 0.0 to output 12.0.
8 | network_0/router_level2_7 | Beginning crossbar traversal for flit 10 from input 1.0 to output 14.0.
8 | network_0/router_level2_7 | Completed crossbar traversal for flit 5 from input 0.0 to output 12.0.
8 | network_0/router_level2_7 | Buffering flit 5 at output 12.
8 | network_0/router_level2_7 | Completed crossbar traversal for flit 10 from input 1.0 to output 14.0.
8 | network_0/router_level2_7 | Buffering flit 10 at output 14.
8 | network_0/router_level3_0 | Beginning VC allocation for VC 0 at input 6 (front: 6).
8 | network_0/router_level3_0 |   VC 0 at output 9 is in use by VC 3 at input 4 (front flit: 12292).
8 | network_0/router_level3_0 |   VC 1 at output 9 is in use by VC 1 at input 2 (front flit: 4098).
8 | network_0/router_level3_0 |   Requesting VC 2 at output 9 (in_pri: 0, out_pri: 0).
8 | network_0/router_level3_0 |   Requesting VC 3 at output 9 (in_pri: 0, out_pri: 0).
8 | network_0/router_level3_0/vc_allocator | Input requests = [ 2 -> [ 0@0 1@0 2@0 ]  5 -> [ 34@0 35@0 ]  6 -> [ 49@0 50@0 51@0 ]  8 -> [ 38@0 39@0 ]  10 -> [ 49@0 50@0 51@0 ]  14 -> [ 49@0 50@0 51@0 ]  18 -> [ 34@0 35@0 ]  21 -> [ 61@0 62@0 63@0 ]  22 -> [ 49@0 50@0 51@0 ]  24 -> [ 38@0 39@0 ]  25 -> [ 34@0 35@0 ]  26 -> [ 38@0 39@0 ]  30 -> [ 34@0 35@0 ]  31 -> [ 38@0 39@0 ]  ], output requests = [ 0 -> [ 2@0 ]  1 -> [ 2@0 ]  2 -> [ 2@0 ]  34 -> [ 5@0 18@0 25@0 30@0 ]  35 -> [ 5@0 18@0 25@0 30@0 ]  38 -> [ 8@0 24@0 26@0 31@0 ]  39 -> [ 8@0 24@0 26@0 31@0 ]  49 -> [ 6@0 10@0 14@0 22@0 ]  50 -> [ 6@0 10@0 14@0 22@0 ]  51 -> [ 6@0 10@0 14@0 22@0 ]  61 -> [ 21@0 ]  62 -> [ 21@0 ]  63 -> [ 21@0 ]  ].
8 | network_0/router_level3_0/vc_allocator | Input grants = [ 2 -> 1  5 -> 34  6 -> 49  8 -> 38  21 -> 61  ], output grants = [ 1 -> 2  34 -> 5  38 -> 8  49 -> 6  61 -> 21  ].
8 | network_0/router_level3_0 | VC allocation failed for VC 0 at input 6.
8 | network_0/router_level3_0 | Completed VC allocation for VC 0 at input 6 (front: 6).
8 | network_0/router_level3_0 |   No output VC allocated.
8 | network_0/network_0_fchan_20481 | Completed channel traversal for flit 4.
8 | network_0/router_level2_0 | Sending flit 8 to channel at output 12.
8 | network_0/router_level2_0 | Sending flit 1 to channel at output 15.
8 | network_0/router_level2_1 | Sending flit 3 to channel at output 11.
8 | network_0/router_level2_2 | Sending flit 2 to channel at output 9.
8 | network_0/router_level2_3 | Sending flit 9 to channel at output 15.
8 | network_0/router_level2_4 | Sending flit 7 to channel at output 14.
8 | network_0/router_level2_7 | Sending flit 5 to channel at output 12.
8 | network_0/router_level2_7 | Sending flit 10 to channel at output 14.
9 | network_0/network_0_fchan_12292 | Beginning channel traversal for flit 8 with delay 1.
9 | network_0/network_0_fchan_12295 | Beginning channel traversal for flit 1 with delay 1.
9 | network_0/network_0_fchan_12299 | Beginning channel traversal for flit 3 with delay 1.
9 | network_0/network_0_fchan_12305 | Beginning channel traversal for flit 2 with delay 1.
9 | network_0/network_0_fchan_12319 | Beginning channel traversal for flit 9 with delay 1.
9 | network_0/network_0_fchan_12326 | Beginning channel traversal for flit 7 with delay 1.
9 | network_0/network_0_fchan_12348 | Beginning channel traversal for flit 5 with delay 1.
9 | network_0/network_0_fchan_12350 | Beginning channel traversal for flit 10 with delay 1.
9 | network_0/router_level2_1 | Received flit 4 from channel at input 0.
9 | network_0/router_level2_1 | Adding flit 4 to VC 0 at input 0 (state: idle, empty).
9 | network_0/router_level2_1 | Using precomputed lookahead routing information for VC 0 at input 0 (front: 4).
9 | network_0/router_level2_1/buf_0/vc_0 | Changing state from idle to vc_alloc.
9 | network_0/router_level2_1 | Beginning VC allocation for VC 0 at input 0 (front: 4).
9 | network_0/router_level2_1 |   VC 0 at output 10 is in use by VC 1 at input 2 (front flit: 4116).
9 | network_0/router_level2_1 |   Requesting VC 1 at output 10 (in_pri: 0, out_pri: 0).
9 | network_0/router_level2_1 |   Requesting VC 2 at output 10 (in_pri: 0, out_pri: 0).
9 | network_0/router_level2_1 |   Requesting VC 3 at output 10 (in_pri: 0, out_pri: 0).
9 | network_0/router_level2_1/vc_allocator | Input requests = [ 0 -> [ 41@0 42@0 43@0 ]  8 -> [ 56@0 58@0 59@0 ]  12 -> [ 56@0 58@0 59@0 ]  20 -> [ 41@0 42@0 43@0 ]  21 -> [ 41@0 42@0 43@0 ]  24 -> [ 52@0 53@0 54@0 55@0 ]  25 -> [ 56@0 58@0 59@0 ]  29 -> [ 45@0 46@0 47@0 ]  ], output requests = [ 41 -> [ 0@0 20@0 21@0 ]  42 -> [ 0@0 20@0 21@0 ]  43 -> [ 0@0 20@0 21@0 ]  45 -> [ 29@0 ]  46 -> [ 29@0 ]  47 -> [ 29@0 ]  52 -> [ 24@0 ]  53 -> [ 24@0 ]  54 -> [ 24@0 ]  55 -> [ 24@0 ]  56 -> [ 8@0 12@0 25@0 ]  58 -> [ 8@0 12@0 25@0 ]  59 -> [ 8@0 12@0 25@0 ]  ].
9 | network_0/router_level2_1/vc_allocator | Input grants = [ 20 -> 41  24 -> 52  25 -> 56  29 -> 46  ], output grants = [ 41 -> 20  46 -> 29  52 -> 24  56 -> 25  ].
9 | network_0/router_level2_1 | VC allocation failed for VC 0 at input 0.
9 | network_0/router_level2_1 | Completed VC allocation for VC 0 at input 0 (front: 4).
9 | network_0/router_level2_1 |   No output VC allocated.
9 | network_0/router_level3_0 | Beginning VC allocation for VC 0 at input 6 (front: 6).
9 | network_0/router_level3_0 |   VC 0 at output 9 is in use by VC 3 at input 4 (front flit: 12292).
9 | network_0/router_level3_0 |   Requesting VC 1 at output 9 (in_pri: 0, out_pri: 0).
9 | network_0/router_level3_0 |   VC 2 at output 9 is in use by VC 0 at input 2 (front flit: 16386).
9 | network_0/router_level3_0 |   Requesting VC 3 at output 9 (in_pri: 0, out_pri: 0).
9 | network_0/router_level3_0/vc_allocator | Input requests = [ 3 -> [ 0@0 2@0 3@0 ]  7 -> [ 52@0 54@0 55@0 ]  9 -> [ 52@0 54@0 55@0 ]  10 -> [ 48@0 50@0 51@0 ]  14 -> [ 48@0 50@0 51@0 ]  18 -> [ 35@0 ]  22 -> [ 48@0 50@0 51@0 ]  23 -> [ 52@0 54@0 55@0 ]  24 -> [ 37@0 39@0 ]  25 -> [ 35@0 ]  26 -> [ 37@0 39@0 ]  27 -> [ 62@0 63@0 ]  30 -> [ 35@0 ]  31 -> [ 37@0 39@0 ]  ], output requests = [ 0 -> [ 3@0 ]  2 -> [ 3@0 ]  3 -> [ 3@0 ]  35 -> [ 18@0 25@0 30@0 ]  37 -> [ 24@0 26@0 31@0 ]  39 -> [ 24@0 26@0 31@0 ]  48 -> [ 10@0 14@0 22@0 ]  50 -> [ 10@0 14@0 22@0 ]  51 -> [ 10@0 14@0 22@0 ]  52 -> [ 7@0 9@0 23@0 ]  54 -> [ 7@0 9@0 23@0 ]  55 -> [ 7@0 9@0 23@0 ]  62 -> [ 27@0 ]  63 -> [ 27@0 ]  ].
9 | network_0/router_level3_0/vc_allocator | Input grants = [ 3 -> 2  7 -> 55  9 -> 52  18 -> 35  22 -> 48  24 -> 37  27 -> 62  ], output grants = [ 2 -> 3  35 -> 18  37 -> 24  48 -> 22  52 -> 9  55 -> 7  62 -> 27  ].
9 | network_0/router_level3_0 | Assigning VC 1 at output 9 to VC 0 at input 6.
9 | network_0/router_level3_0 | Completed VC allocation for VC 0 at input 6 (front: 6).
9 | network_0/router_level3_0 |   Acquiring assigned VC 1 at output 9.
9 | network_0/router_level3_0/buf_6/vc_0 | Changing state from vc_alloc to active.
9 | network_0/network_0_fchan_12292 | Completed channel traversal for flit 8.
9 | network_0/network_0_fchan_12295 | Completed channel traversal for flit 1.
9 | network_0/network_0_fchan_12299 | Completed channel traversal for flit 3.
9 | network_0/network_0_fchan_12305 | Completed channel traversal for flit 2.
9 | network_0/network_0_fchan_12319 | Completed channel traversal for flit 9.
9 | network_0/network_0_fchan_12326 | Completed channel traversal for flit 7.
9 | network_0/network_0_fchan_12348 | Completed channel traversal for flit 5.
9 | network_0/network_0_fchan_12350 | Completed channel traversal for flit 10.
10 | network_0/router_level1_10 | Received flit 2 from channel at input 0.
10 | network_0/router_level1_25 | Received flit 3 from channel at input 0.
10 | network_0/router_level1_32 | Received flit 8 from channel at input 0.
10 | network_0/router_level1_39 | Received flit 5 from channel at input 0.
10 | network_0/router_level1_52 | Received flit 7 from channel at input 0.
10 | network_0/router_level1_55 | Received flit 10 from channel at input 0.
10 | network_0/router_level1_56 | Received flit 1 from channel at input 0.
10 | network_0/router_level1_59 | Received flit 9 from channel at input 0.
10 | network_0/router_level1_10 | Adding flit 2 to VC 0 at input 0 (state: idle, empty).
10 | network_0/router_level1_10 | Using precomputed lookahead routing information for VC 0 at input 0 (front: 2).
10 | network_0/router_level1_10/buf_0/vc_0 | Changing state from idle to vc_alloc.
10 | network_0/router_level1_10 | Beginning VC allocation for VC 0 at input 0 (front: 2).
10 | network_0/router_level1_10 |   Requesting VC 0 at output 2 (in_pri: 0, out_pri: 0).
10 | network_0/router_level1_10 |   Requesting VC 1 at output 2 (in_pri: 0, out_pri: 0).
10 | network_0/router_level1_10 |   Requesting VC 2 at output 2 (in_pri: 0, out_pri: 0).
10 | network_0/router_level1_10 |   Requesting VC 3 at output 2 (in_pri: 0, out_pri: 0).
10 | network_0/router_level1_10/vc_allocator | Input requests = [ 0 -> [ 8@0 9@0 10@0 11@0 ]  4 -> [ 20@0 21@0 22@0 23@0 ]  16 -> [ 32@0 33@0 34@0 35@0 ]  20 -> [ 36@0 37@0 38@0 39@0 ]  28 -> [ 32@0 33@0 34@0 35@0 ]  ], output requests = [ 8 -> [ 0@0 ]  9 -> [ 0@0 ]  10 -> [ 0@0 ]  11 -> [ 0@0 ]  20 -> [ 4@0 ]  21 -> [ 4@0 ]  22 -> [ 4@0 ]  23 -> [ 4@0 ]  32 -> [ 16@0 28@0 ]  33 -> [ 16@0 28@0 ]  34 -> [ 16@0 28@0 ]  35 -> [ 16@0 28@0 ]  36 -> [ 20@0 ]  37 -> [ 20@0 ]  38 -> [ 20@0 ]  39 -> [ 20@0 ]  ].
10 | network_0/router_level1_10/vc_allocator | Input grants = [ 0 -> 8  4 -> 20  16 -> 32  20 -> 36  ], output grants = [ 8 -> 0  20 -> 4  32 -> 16  36 -> 20  ].
10 | network_0/router_level1_10 | Assigning VC 0 at output 2 to VC 0 at input 0.
10 | network_0/router_level1_10 | Completed VC allocation for VC 0 at input 0 (front: 2).
10 | network_0/router_level1_10 |   Acquiring assigned VC 0 at output 2.
10 | network_0/router_level1_10/buf_0/vc_0 | Changing state from vc_alloc to active.
10 | network_0/router_level1_25 | Adding flit 3 to VC 0 at input 0 (state: idle, empty).
10 | network_0/router_level1_25 | Using precomputed lookahead routing information for VC 0 at input 0 (front: 3).
10 | network_0/router_level1_25/buf_0/vc_0 | Changing state from idle to vc_alloc.
10 | network_0/router_level1_25 | Beginning VC allocation for VC 0 at input 0 (front: 3).
10 | network_0/router_level1_25 |   Requesting VC 0 at output 3 (in_pri: 0, out_pri: 0).
10 | network_0/router_level1_25 |   Requesting VC 1 at output 3 (in_pri: 0, out_pri: 0).
10 | network_0/router_level1_25 |   Requesting VC 2 at output 3 (in_pri: 0, out_pri: 0).
10 | network_0/router_level1_25 |   Requesting VC 3 at output 3 (in_pri: 0, out_pri: 0).
10 | network_0/router_level1_25/vc_allocator | Input requests = [ 0 -> [ 12@0 13@0 14@0 15@0 ]  4 -> [ 32@0 33@0 34@0 35@0 ]  12 -> [ 32@0 33@0 34@0 35@0 ]  16 -> [ 32@0 33@0 34@0 35@0 ]  24 -> [ 36@0 37@0 38@0 39@0 ]  ], output requests = [ 12 -> [ 0@0 ]  13 -> [ 0@0 ]  14 -> [ 0@0 ]  15 -> [ 0@0 ]  32 -> [ 4@0 12@0 16@0 ]  33 -> [ 4@0 12@0 16@0 ]  34 -> [ 4@0 12@0 16@0 ]  35 -> [ 4@0 12@0 16@0 ]  36 -> [ 24@0 ]  37 -> [ 24@0 ]  38 -> [ 24@0 ]  39 -> [ 24@0 ]  ].
10 | network_0/router_level1_25/vc_allocator | Input grants = [ 0 -> 12  4 -> 32  24 -> 36  ], output grants = [ 12 -> 0  32 -> 4  36 -> 24  ].
10 | network_0/router_level1_25 | Assigning VC 0 at output 3 to VC 0 at input 0.
10 | network_0/router_level1_25 | Completed VC allocation for VC 0 at input 0 (front: 3).
10 | network_0/router_level1_25 |   Acquiring assigned VC 0 at output 3.
10 | network_0/router_level1_25/buf_0/vc_0 | Changing state from vc_alloc to active.
10 | network_0/router_level1_32 | Adding flit 8 to VC 0 at input 0 (state: idle, empty).
10 | network_0/router_level1_32 | Using precomputed lookahead routing information for VC 0 at input 0 (front: 8).
10 | network_0/router_level1_32/buf_0/vc_0 | Changing state from idle to vc_alloc.
10 | network_0/router_level1_32 | Beginning VC allocation for VC 0 at input 0 (front: 8).
10 | network_0/router_level1_32 |   Requesting VC 0 at output 9 (in_pri: 0, out_pri: 0).
10 | network_0/router_level1_32 |   Requesting VC 1 at output 9 (in_pri: 0, out_pri: 0).
10 | network_0/router_level1_32 |   Requesting VC 2 at output 9 (in_pri: 0, out_pri: 0).
10 | network_0/router_level1_32 |   Requesting VC 3 at output 9 (in_pri: 0, out_pri: 0).
10 | network_0/router_level1_32/vc_allocator | Input requests = [ 0 -> [ 36@0 37@0 38@0 39@0 ]  8 -> [ 32@0 33@0 34@0 35@0 ]  12 -> [ 36@0 37@0 38@0 39@0 ]  ], output requests = [ 32 -> [ 8@0 ]  33 -> [ 8@0 ]  34 -> [ 8@0 ]  35 -> [ 8@0 ]  36 -> [ 0@0 12@0 ]  37 -> [ 0@0 12@0 ]  38 -> [ 0@0 12@0 ]  39 -> [ 0@0 12@0 ]  ].
10 | network_0/router_level1_32/vc_allocator | Input grants = [ 0 -> 36  8 -> 32  ], output grants = [ 32 -> 8  36 -> 0  ].
10 | network_0/router_level1_32 | Assigning VC 0 at output 9 to VC 0 at input 0.
10 | network_0/router_level1_32 | Completed VC allocation for VC 0 at input 0 (front: 8).
10 | network_0/router_level1_32 |   Acquiring assigned VC 0 at output 9.
10 | network_0/router_level1_32/buf_0/vc_0 | Changing state from vc_alloc to active.
10 | network_0/router_level1_39 | Adding flit 5 to VC 0 at input 0 (state: idle, empty).
10 | network_0/router_level1_39 | Using precomputed lookahead routing information for VC 0 at input 0 (front: 5).
10 | network_0/router_level1_39/buf_0/vc_0 | Changing state from idle to vc_alloc.
10 | network_0/router_level1_39 | Beginning VC allocation for VC 0 at input 0 (front: 5).
10 | network_0/router_level1_39 |   Requesting VC 0 at output 5 (in_pri: 0, out_pri: 0).
10 | network_0/router_level1_39 |   Requesting VC 1 at output 5 (in_pri: 0, out_pri: 0).
10 | network_0/router_level1_39 |   Requesting VC 2 at output 5 (in_pri: 0, out_pri: 0).
10 | network_0/router_level1_39 |   Requesting VC 3 at output 5 (in_pri: 0, out_pri: 0).
10 | network_0/router_level1_39/vc_allocator | Input requests = [ 0 -> [ 20@0 21@0 22@0 23@0 ]  4 -> [ 36@0 37@0 38@0 39@0 ]  12 -> [ 32@0 33@0 34@0 35@0 ]  16 -> [ 36@0 37@0 38@0 39@0 ]  24 -> [ 28@0 29@0 30@0 31@0 ]  ], output requests = [ 20 -> [ 0@0 ]  21 -> [ 0@0 ]  22 -> [ 0@0 ]  23 -> [ 0@0 ]  28 -> [ 24@0 ]  29 -> [ 24@0 ]  30 -> [ 24@0 ]  31 -> [ 24@0 ]  32 -> [ 12@0 ]  33 -> [ 12@0 ]  34 -> [ 12@0 ]  35 -> [ 12@0 ]  36 -> [ 4@0 16@0 ]  37 -> [ 4@0 16@0 ]  38 -> [ 4@0 16@0 ]  39 -> [ 4@0 16@0 ]  ].
10 | network_0/router_level1_39/vc_allocator | Input grants = [ 0 -> 20  4 -> 36  12 -> 32  24 -> 28  ], output grants = [ 20 -> 0  28 -> 24  32 -> 12  36 -> 4  ].
10 | network_0/router_level1_39 | Assigning VC 0 at output 5 to VC 0 at input 0.
10 | network_0/router_level1_39 | Completed VC allocation for VC 0 at input 0 (front: 5).
10 | network_0/router_level1_39 |   Acquiring assigned VC 0 at output 5.
10 | network_0/router_level1_39/buf_0/vc_0 | Changing state from vc_alloc to active.
10 | network_0/router_level1_52 | Adding flit 7 to VC 0 at input 0 (state: idle, empty).
10 | network_0/router_level1_52 | Using precomputed lookahead routing information for VC 0 at input 0 (front: 7).
10 | network_0/router_level1_52/buf_0/vc_0 | Changing state from idle to vc_alloc.
10 | network_0/router_level1_52 | Beginning VC allocation for VC 0 at input 0 (front: 7).
10 | network_0/router_level1_52 |   Requesting VC 0 at output 7 (in_pri: 0, out_pri: 0).
10 | network_0/router_level1_52 |   Requesting VC 1 at output 7 (in_pri: 0, out_pri: 0).
10 | network_0/router_level1_52 |   Requesting VC 2 at output 7 (in_pri: 0, out_pri: 0).
10 | network_0/router_level1_52 |   Requesting VC 3 at output 7 (in_pri: 0, out_pri: 0).
10 | network_0/router_level1_52/vc_allocator | Input requests = [ 0 -> [ 28@0 29@0 30@0 31@0 ]  8 -> [ 36@0 37@0 38@0 39@0 ]  16 -> [ 32@0 33@0 34@0 35@0 ]  28 -> [ 24@0 25@0 26@0 27@0 ]  ], output requests = [ 24 -> [ 28@0 ]  25 -> [ 28@0 ]  26 -> [ 28@0 ]  27 -> [ 28@0 ]  28 -> [ 0@0 ]  29 -> [ 0@0 ]  30 -> [ 0@0 ]  31 -> [ 0@0 ]  32 -> [ 16@0 ]  33 -> [ 16@0 ]  34 -> [ 16@0 ]  35 -> [ 16@0 ]  36 -> [ 8@0 ]  37 -> [ 8@0 ]  38 -> [ 8@0 ]  39 -> [ 8@0 ]  ].
10 | network_0/router_level1_52/vc_allocator | Input grants = [ 0 -> 28  8 -> 36  16 -> 32  28 -> 24  ], output grants = [ 24 -> 28  28 -> 0  32 -> 16  36 -> 8  ].
10 | network_0/router_level1_52 | Assigning VC 0 at output 7 to VC 0 at input 0.
10 | network_0/router_level1_52 | Completed VC allocation for VC 0 at input 0 (front: 7).
10 | network_0/router_level1_52 |   Acquiring assigned VC 0 at output 7.
10 | network_0/router_level1_52/buf_0/vc_0 | Changing state from vc_alloc to active.
10 | network_0/router_level1_55 | Adding flit 10 to VC 0 at input 0 (state: idle, empty).
10 | network_0/router_level1_55 | Using precomputed lookahead routing information for VC 0 at input 0 (front: 10).
10 | network_0/router_level1_55/buf_0/vc_0 | Changing state from idle to vc_alloc.
10 | network_0/router_level1_55 | Beginning VC allocation for VC 0 at input 0 (front: 10).
10 | network_0/router_level1_55 |   Requesting VC 0 at output 8 (in_pri: 0, out_pri: 0).
10 | network_0/router_level1_55 |   Requesting VC 1 at output 8 (in_pri: 0, out_pri: 0).
10 | network_0/router_level1_55 |   Requesting VC 2 at output 8 (in_pri: 0, out_pri: 0).
10 | network_0/router_level1_55 |   Requesting VC 3 at output 8 (in_pri: 0, out_pri: 0).
10 | network_0/router_level1_55/vc_allocator | Input requests = [ 0 -> [ 32@0 33@0 34@0 35@0 ]  12 -> [ 36@0 37@0 38@0 39@0 ]  16 -> [ 36@0 37@0 38@0 39@0 ]  20 -> [ 36@0 37@0 38@0 39@0 ]  ], output requests = [ 32 -> [ 0@0 ]  33 -> [ 0@0 ]  34 -> [ 0@0 ]  35 -> [ 0@0 ]  36 -> [ 12@0 16@0 20@0 ]  37 -> [ 12@0 16@0 20@0 ]  38 -> [ 12@0 16@0 20@0 ]  39 -> [ 12@0 16@0 20@0 ]  ].
10 | network_0/router_level1_55/vc_allocator | Input grants = [ 0 -> 32  12 -> 36  ], output grants = [ 32 -> 0  36 -> 12  ].
10 | network_0/router_level1_55 | Assigning VC 0 at output 8 to VC 0 at input 0.
[...]
30 | network_0/router_level3_72 | Completed crossbar traversal for flit 9 from input 11.0 to output 0.0.
30 | network_0/router_level3_72 | Buffering flit 9 at output 0.
30 | network_0/router_level3_80 | Beginning crossbar traversal for flit 10 from input 15.0 to output 0.0.
30 | network_0/router_level3_80 | Completed crossbar traversal for flit 10 from input 15.0 to output 0.0.
30 | network_0/router_level3_80 | Buffering flit 10 at output 0.
30 | network_0/network_0_fchan_egress256 | Completed channel traversal for flit 4.
30 | network_0/network_0_fchan_8398 | Completed channel traversal for flit 6.
30 | network_0/router_level2_64 | Sending flit 8 to channel at output 0.
30 | network_0/router_level3_72 | Sending flit 9 to channel at output 0.
30 | network_0/router_level3_80 | Sending flit 10 to channel at output 0.
31 | node256 | Ejecting flit 4 (packet 4) from VC 1.
31 | network_0/network_0_fchan_egress576 | Beginning channel traversal for flit 9 with delay 1.
31 | network_0/network_0_fchan_egress640 | Beginning channel traversal for flit 10 with delay 1.
31 | network_0/network_0_fchan_16896 | Beginning channel traversal for flit 8 with delay 1.
31 | network_0/router_level2_49 | Received flit 6 from channel at input 11.
31 | node256 | Injecting credit for VC 1 into subnet 0.
31 | node256 | Retiring flit 4 (packet 4, src = 4, dest = 256, hops = 5, flat = 31).
31 | node256 | Retiring packet 4 (plat = 31, nlat = 31, frag = 0, src = 4, dest = 256).
31 | network_0/router_level2_49 | Adding flit 6 to VC 1 at input 11 (state: idle, empty).
31 | network_0/router_level2_49 | Using precomputed lookahead routing information for VC 1 at input 11 (front: 6).
31 | network_0/router_level2_49/buf_11/vc_1 | Changing state from idle to vc_alloc.
31 | network_0/router_level2_49 | Beginning VC allocation for VC 1 at input 11 (front: 6).
31 | network_0/router_level2_49 |   Requesting VC 0 at output 0 (in_pri: 0, out_pri: 0).
31 | network_0/router_level2_49 |   VC 1 at output 0 is in use by VC 0 at input 9 (front flit: 41030).
31 | network_0/router_level2_49 |   Requesting VC 2 at output 0 (in_pri: 0, out_pri: 0).
31 | network_0/router_level2_49 |   Requesting VC 3 at output 0 (in_pri: 0, out_pri: 0).
31 | network_0/router_level2_49/vc_allocator | Input requests = [ 6 -> [ 40@0 43@0 ]  11 -> [ 38@0 39@0 ]  23 -> [ 52@0 53@0 54@0 55@0 ]  26 -> [ 32@0 33@0 34@0 35@0 ]  28 -> [ 32@0 33@0 34@0 35@0 ]  30 -> [ 60@0 63@0 ]  32 -> [ 0@0 2@0 3@0 ]  45 -> [ 0@0 2@0 3@0 ]  48 -> [ 13@0 14@0 15@0 ]  ], output requests = [ 0 -> [ 32@0 45@0 ]  2 -> [ 32@0 45@0 ]  3 -> [ 32@0 45@0 ]  13 -> [ 48@0 ]  14 -> [ 48@0 ]  15 -> [ 48@0 ]  32 -> [ 26@0 28@0 ]  33 -> [ 26@0 28@0 ]  34 -> [ 26@0 28@0 ]  35 -> [ 26@0 28@0 ]  38 -> [ 11@0 ]  39 -> [ 11@0 ]  40 -> [ 6@0 ]  43 -> [ 6@0 ]  52 -> [ 23@0 ]  53 -> [ 23@0 ]  54 -> [ 23@0 ]  55 -> [ 23@0 ]  60 -> [ 30@0 ]  63 -> [ 30@0 ]  ].
31 | network_0/router_level2_49/vc_allocator | Input grants = [ 6 -> 43  11 -> 38  23 -> 52  26 -> 32  30 -> 60  32 -> 0  48 -> 13  ], output grants = [ 0 -> 32  13 -> 48  32 -> 26  38 -> 11  43 -> 6  52 -> 23  60 -> 30  ].
31 | network_0/router_level2_49 | VC allocation failed for VC 1 at input 11.
31 | network_0/router_level2_49 | Completed VC allocation for VC 1 at input 11 (front: 6).
31 | network_0/router_level2_49 |   No output VC allocated.
31 | network_0/network_0_fchan_egress576 | Completed channel traversal for flit 9.
31 | network_0/network_0_fchan_egress640 | Completed channel traversal for flit 10.
31 | network_0/network_0_fchan_16896 | Completed channel traversal for flit 8.
32 | node576 | Ejecting flit 9 (packet 9) from VC 1.
32 | node640 | Ejecting flit 10 (packet 10) from VC 1.
32 | network_0/router_level3_64 | Received flit 8 from channel at input 8.
32 | node576 | Injecting credit for VC 1 into subnet 0.
32 | node576 | Retiring flit 9 (packet 9, src = 9, dest = 576, hops = 7, flat = 32).
32 | node576 | Retiring packet 9 (plat = 32, nlat = 32, frag = 0, src = 9, dest = 576).
32 | node640 | Injecting credit for VC 1 into subnet 0.
32 | node640 | Retiring flit 10 (packet 10, src = 10, dest = 640, hops = 7, flat = 32).
32 | node640 | Retiring packet 10 (plat = 32, nlat = 32, frag = 0, src = 10, dest = 640).
32 | network_0/router_level2_49 | Beginning VC allocation for VC 1 at input 11 (front: 6).
32 | network_0/router_level2_49 |   VC 0 at output 0 is in use by VC 0 at input 8 (front flit: 61702).
32 | network_0/router_level2_49 |   Requesting VC 1 at output 0 (in_pri: 0, out_pri: 0).
32 | network_0/router_level2_49 |   Requesting VC 2 at output 0 (in_pri: 0, out_pri: 0).
32 | network_0/router_level2_49 |   Requesting VC 3 at output 0 (in_pri: 0, out_pri: 0).
32 | network_0/router_level2_49/vc_allocator | Input requests = [ 2 -> [ 48@0 49@0 50@0 51@0 ]  4 -> [ 33@0 34@0 35@0 ]  9 -> [ 56@0 57@0 59@0 ]  10 -> [ 44@0 45@0 46@0 47@0 ]  12 -> [ 53@0 54@0 55@0 ]  16 -> [ 53@0 54@0 55@0 ]  17 -> [ 33@0 34@0 35@0 ]  20 -> [ 33@0 34@0 35@0 ]  24 -> [ 56@0 57@0 59@0 ]  25 -> [ 56@0 57@0 59@0 ]  28 -> [ 33@0 34@0 35@0 ]  44 -> [ 1@0 2@0 3@0 ]  45 -> [ 1@0 2@0 3@0 ]  ], output requests = [ 1 -> [ 44@0 45@0 ]  2 -> [ 44@0 45@0 ]  3 -> [ 44@0 45@0 ]  33 -> [ 4@0 17@0 20@0 28@0 ]  34 -> [ 4@0 17@0 20@0 28@0 ]  35 -> [ 4@0 17@0 20@0 28@0 ]  44 -> [ 10@0 ]  45 -> [ 10@0 ]  46 -> [ 10@0 ]  47 -> [ 10@0 ]  48 -> [ 2@0 ]  49 -> [ 2@0 ]  50 -> [ 2@0 ]  51 -> [ 2@0 ]  53 -> [ 12@0 16@0 ]  54 -> [ 12@0 16@0 ]  55 -> [ 12@0 16@0 ]  56 -> [ 9@0 24@0 25@0 ]  57 -> [ 9@0 24@0 25@0 ]  59 -> [ 9@0 24@0 25@0 ]  ].
32 | network_0/router_level2_49/vc_allocator | Input grants = [ 2 -> 48  9 -> 59  10 -> 44  12 -> 53  24 -> 56  28 -> 33  44 -> 1  ], output grants = [ 1 -> 44  33 -> 28  44 -> 10  48 -> 2  53 -> 12  56 -> 24  59 -> 9  ].
32 | network_0/router_level2_49 | VC allocation failed for VC 1 at input 11.
32 | network_0/router_level2_49 | Completed VC allocation for VC 1 at input 11 (front: 6).
32 | network_0/router_level2_49 |   No output VC allocated.
32 | network_0/router_level3_64 | Adding flit 8 to VC 0 at input 8 (state: idle, empty).
32 | network_0/router_level3_64 | Using precomputed lookahead routing information for VC 0 at input 8 (front: 8).
32 | network_0/router_level3_64/buf_8/vc_0 | Changing state from idle to vc_alloc.
32 | network_0/router_level3_64 | Beginning VC allocation for VC 0 at input 8 (front: 8).
32 | network_0/router_level3_64 |   Requesting VC 0 at output 0 (in_pri: 0, out_pri: 0).
32 | network_0/router_level3_64 |   Requesting VC 1 at output 0 (in_pri: 0, out_pri: 0).
32 | network_0/router_level3_64 |   Requesting VC 2 at output 0 (in_pri: 0, out_pri: 0).
32 | network_0/router_level3_64 |   Requesting VC 3 at output 0 (in_pri: 0, out_pri: 0).
32 | network_0/router_level3_64/vc_allocator | Input requests = [ 6 -> [ 53@0 ]  10 -> [ 42@0 ]  11 -> [ 42@0 ]  13 -> [ 50@0 ]  16 -> [ 53@0 ]  21 -> [ 44@0 46@0 ]  25 -> [ 53@0 ]  28 -> [ 50@0 ]  32 -> [ 0@0 1@0 2@0 3@0 ]  ], output requests = [ 0 -> [ 32@0 ]  1 -> [ 32@0 ]  2 -> [ 32@0 ]  3 -> [ 32@0 ]  42 -> [ 10@0 11@0 ]  44 -> [ 21@0 ]  46 -> [ 21@0 ]  50 -> [ 13@0 28@0 ]  53 -> [ 6@0 16@0 25@0 ]  ].
32 | network_0/router_level3_64/vc_allocator | Input grants = [ 10 -> 42  16 -> 53  21 -> 44  28 -> 50  32 -> 0  ], output grants = [ 0 -> 32  42 -> 10  44 -> 21  50 -> 28  53 -> 16  ].
32 | network_0/router_level3_64 | Assigning VC 0 at output 0 to VC 0 at input 8.
32 | network_0/router_level3_64 | Completed VC allocation for VC 0 at input 8 (front: 8).
32 | network_0/router_level3_64 |   Acquiring assigned VC 0 at output 0.
32 | network_0/router_level3_64/buf_8/vc_0 | Changing state from vc_alloc to active.
33 | network_0/router_level2_49 | Beginning VC allocation for VC 1 at input 11 (front: 6).
33 | network_0/router_level2_49 |   Requesting VC 0 at output 0 (in_pri: 0, out_pri: 0).
33 | network_0/router_level2_49 |   VC 1 at output 0 is in use by VC 0 at input 11 (front flit: 28998).
33 | network_0/router_level2_49 |   Requesting VC 2 at output 0 (in_pri: 0, out_pri: 0).
33 | network_0/router_level2_49 |   Requesting VC 3 at output 0 (in_pri: 0, out_pri: 0).
33 | network_0/router_level2_49/vc_allocator | Input requests = [ 4 -> [ 32@0 34@0 35@0 ]  8 -> [ 57@0 58@0 ]  14 -> [ 57@0 58@0 ]  16 -> [ 54@0 55@0 ]  17 -> [ 32@0 34@0 35@0 ]  18 -> [ 32@0 34@0 35@0 ]  20 -> [ 32@0 34@0 35@0 ]  21 -> [ 61@0 62@0 63@0 ]  22 -> [ 36@0 37@0 39@0 ]  25 -> [ 57@0 58@0 ]  45 -> [ 0@0 2@0 3@0 ]  ], output requests = [ 0 -> [ 45@0 ]  2 -> [ 45@0 ]  3 -> [ 45@0 ]  32 -> [ 4@0 17@0 18@0 20@0 ]  34 -> [ 4@0 17@0 18@0 20@0 ]  35 -> [ 4@0 17@0 18@0 20@0 ]  36 -> [ 22@0 ]  37 -> [ 22@0 ]  39 -> [ 22@0 ]  54 -> [ 16@0 ]  55 -> [ 16@0 ]  57 -> [ 8@0 14@0 25@0 ]  58 -> [ 8@0 14@0 25@0 ]  61 -> [ 21@0 ]  62 -> [ 21@0 ]  63 -> [ 21@0 ]  ].
33 | network_0/router_level2_49/vc_allocator | Input grants = [ 4 -> 32  14 -> 57  16 -> 54  21 -> 61  22 -> 36  45 -> 0  ], output grants = [ 0 -> 45  32 -> 4  36 -> 22  54 -> 16  57 -> 14  61 -> 21  ].
33 | network_0/router_level2_49 | Assigning VC 0 at output 0 to VC 1 at input 11.
33 | network_0/router_level2_49 | Completed VC allocation for VC 1 at input 11 (front: 6).
33 | network_0/router_level2_49 |   Acquiring assigned VC 0 at output 0.
33 | network_0/router_level2_49/buf_11/vc_1 | Changing state from vc_alloc to active.
33 | network_0/router_level3_64 | Beginning switch allocation for VC 0 at input 8 (front: 8).
33 | network_0/router_level3_64 |   Requesting output 0.0 (non-spec, pri: 0).
33 | network_0/router_level3_64/sw_allocator | Input requests = [ 0 -> [ 10@0 13@0 14@0 ]  1 -> [ 12@0 14@0 ]  2 -> [ 10@0 ]  3 -> [ 8@0 ]  4 -> [ 11@0 13@0 ]  5 -> [ 11@0 15@0 ]  6 -> [ 13@0 ]  7 -> [ 10@0 12@0 14@0 ]  8 -> [ 0@0 ]  ], output requests = [ 0 -> [ 8@0 ]  8 -> [ 3@0 ]  10 -> [ 0@0 2@0 7@0 ]  11 -> [ 4@0 5@0 ]  12 -> [ 1@0 7@0 ]  13 -> [ 0@0 4@0 6@0 ]  14 -> [ 0@0 1@0 7@0 ]  15 -> [ 5@0 ]  ].
33 | network_0/router_level3_64/sw_allocator | Input grants = [ 2 -> 10  3 -> 8  4 -> 11  5 -> 15  6 -> 13  7 -> 12  8 -> 0  ], output grants = [ 0 -> 8  8 -> 3  10 -> 2  11 -> 4  12 -> 7  13 -> 6  15 -> 5  ].
33 | network_0/router_level3_64 | Assigning output 0.0 to VC 0 at input 8.0.
33 | network_0/router_level3_64 | Completed switch allocation for VC 0 at input 8 (front: 8).
33 | network_0/router_level3_64 |   Scheduling switch connection from input 8.0 to output 0.0.
34 | network_0/router_level2_49 | Beginning switch allocation for VC 1 at input 11 (front: 6).
34 | network_0/router_level2_49 |   Requesting output 0.0 (non-spec, pri: 0).
34 | network_0/router_level2_49/sw_allocator | Input requests = [ 1 -> [ 8@0 ]  2 -> [ 9@0 14@0 ]  3 -> [ 14@0 ]  4 -> [ 13@0 ]  5 -> [ 9@0 13@0 15@0 ]  7 -> [ 8@0 ]  11 -> [ 0@0 ]  ], output requests = [ 0 -> [ 11@0 ]  8 -> [ 1@0 7@0 ]  9 -> [ 2@0 5@0 ]  13 -> [ 4@0 5@0 ]  14 -> [ 2@0 3@0 ]  15 -> [ 5@0 ]  ].
34 | network_0/router_level2_49/sw_allocator | Input grants = [ 2 -> 14  4 -> 13  7 -> 8  11 -> 0  ], output grants = [ 0 -> 11  8 -> 7  13 -> 4  14 -> 2  ].
34 | network_0/router_level2_49 | Assigning output 0.0 to VC 1 at input 11.0.
34 | network_0/router_level2_49 | Completed switch allocation for VC 1 at input 11 (front: 6).
34 | network_0/router_level2_49 |   Scheduling switch connection from input 11.0 to output 0.0.
34 | network_0/router_level2_49 | Updating lookahead routing information for flit 6.
34 | network_0/router_level3_64 | Beginning crossbar traversal for flit 8 from input 8.0 to output 0.0.
34 | network_0/router_level3_64 | Completed crossbar traversal for flit 8 from input 8.0 to output 0.0.
34 | network_0/router_level3_64 | Buffering flit 8 at output 0.
34 | network_0/router_level3_64 | Sending flit 8 to channel at output 0.
35 | network_0/network_0_fchan_egress512 | Beginning channel traversal for flit 8 with delay 1.
35 | network_0/router_level2_49 | Beginning crossbar traversal for flit 6 from input 11.0 to output 0.0.
35 | network_0/router_level2_49 | Completed crossbar traversal for flit 6 from input 11.0 to output 0.0.
35 | network_0/router_level2_49 | Buffering flit 6 at output 0.
35 | network_0/network_0_fchan_egress512 | Completed channel traversal for flit 8.
35 | network_0/router_level2_49 | Sending flit 6 to channel at output 0.
36 | node512 | Ejecting flit 8 (packet 8) from VC 0.
36 | network_0/network_0_fchan_16776 | Beginning channel traversal for flit 6 with delay 1.
36 | node512 | Injecting credit for VC 0 into subnet 0.
36 | node512 | Retiring flit 8 (packet 8, src = 8, dest = 512, hops = 7, flat = 36).
36 | node512 | Retiring packet 8 (plat = 36, nlat = 36, frag = 0, src = 8, dest = 512).
36 | network_0/network_0_fchan_16776 | Completed channel traversal for flit 6.
37 | network_0/router_level3_48 | Received flit 6 from channel at input 9.
37 | network_0/router_level3_48 | Adding flit 6 to VC 0 at input 9 (state: idle, empty).
37 | network_0/router_level3_48 | Using precomputed lookahead routing information for VC 0 at input 9 (front: 6).
37 | network_0/router_level3_48/buf_9/vc_0 | Changing state from idle to vc_alloc.
37 | network_0/router_level3_48 | Beginning VC allocation for VC 0 at input 9 (front: 6).
37 | network_0/router_level3_48 |   Requesting VC 0 at output 0 (in_pri: 0, out_pri: 0).
37 | network_0/router_level3_48 |   Requesting VC 1 at output 0 (in_pri: 0, out_pri: 0).
37 | network_0/router_level3_48 |   Requesting VC 2 at output 0 (in_pri: 0, out_pri: 0).
37 | network_0/router_level3_48 |   Requesting VC 3 at output 0 (in_pri: 0, out_pri: 0).
37 | network_0/router_level3_48/vc_allocator | Input requests = [ 2 -> [ 59@0 ]  6 -> [ 59@0 ]  7 -> [ 62@0 ]  8 -> [ 62@0 ]  9 -> [ 32@0 33@0 34@0 35@0 ]  13 -> [ 42@0 43@0 ]  14 -> [ 36@0 37@0 38@0 ]  15 -> [ 59@0 ]  18 -> [ 50@0 51@0 ]  22 -> [ 45@0 46@0 47@0 ]  27 -> [ 25@0 26@0 27@0 ]  28 -> [ 59@0 ]  30 -> [ 62@0 ]  32 -> [ 0@0 1@0 2@0 3@0 ]  36 -> [ 0@0 1@0 2@0 3@0 ]  49 -> [ 4@0 6@0 7@0 ]  52 -> [ 21@0 22@0 23@0 ]  ], output requests = [ 0 -> [ 32@0 36@0 ]  1 -> [ 32@0 36@0 ]  2 -> [ 32@0 36@0 ]  3 -> [ 32@0 36@0 ]  4 -> [ 49@0 ]  6 -> [ 49@0 ]  7 -> [ 49@0 ]  21 -> [ 52@0 ]  22 -> [ 52@0 ]  23 -> [ 52@0 ]  25 -> [ 27@0 ]  26 -> [ 27@0 ]  27 -> [ 27@0 ]  32 -> [ 9@0 ]  33 -> [ 9@0 ]  34 -> [ 9@0 ]  35 -> [ 9@0 ]  36 -> [ 14@0 ]  37 -> [ 14@0 ]  38 -> [ 14@0 ]  42 -> [ 13@0 ]  43 -> [ 13@0 ]  45 -> [ 22@0 ]  46 -> [ 22@0 ]  47 -> [ 22@0 ]  50 -> [ 18@0 ]  51 -> [ 18@0 ]  59 -> [ 2@0 6@0 15@0 28@0 ]  62 -> [ 7@0 8@0 30@0 ]  ].
37 | network_0/router_level3_48/vc_allocator | Input grants = [ 7 -> 62  9 -> 32  13 -> 42  14 -> 36  15 -> 59  18 -> 50  22 -> 46  27 -> 25  32 -> 0  49 -> 6  52 -> 21  ], output grants = [ 0 -> 32  6 -> 49  21 -> 52  25 -> 27  32 -> 9  36 -> 14  42 -> 13  46 -> 22  50 -> 18  59 -> 15  62 -> 7  ].
37 | network_0/router_level3_48 | VC allocation failed for VC 0 at input 9.
37 | network_0/router_level3_48 | Completed VC allocation for VC 0 at input 9 (front: 6).
37 | network_0/router_level3_48 |   No output VC allocated.
38 | network_0/router_level3_48 | Beginning VC allocation for VC 0 at input 9 (front: 6).
38 | network_0/router_level3_48 |   VC 0 at output 0 is in use by VC 0 at input 8 (front flit: 32774).
38 | network_0/router_level3_48 |   Requesting VC 1 at output 0 (in_pri: 0, out_pri: 0).
38 | network_0/router_level3_48 |   Requesting VC 2 at output 0 (in_pri: 0, out_pri: 0).
38 | network_0/router_level3_48 |   Requesting VC 3 at output 0 (in_pri: 0, out_pri: 0).
38 | network_0/router_level3_48/vc_allocator | Input requests = [ 2 -> [ 58@0 ]  6 -> [ 58@0 ]  8 -> [ 61@0 ]  11 -> [ 61@0 ]  12 -> [ 37@0 38@0 ]  16 -> [ 58@0 ]  17 -> [ 44@0 45@0 47@0 ]  21 -> [ 33@0 34@0 35@0 ]  24 -> [ 24@0 26@0 27@0 ]  28 -> [ 58@0 ]  29 -> [ 44@0 45@0 47@0 ]  30 -> [ 61@0 ]  36 -> [ 1@0 2@0 3@0 ]  44 -> [ 8@0 9@0 10@0 11@0 ]  48 -> [ 20@0 22@0 23@0 ]  53 -> [ 20@0 22@0 23@0 ]  ], output requests = [ 1 -> [ 36@0 ]  2 -> [ 36@0 ]  3 -> [ 36@0 ]  8 -> [ 44@0 ]  9 -> [ 44@0 ]  10 -> [ 44@0 ]  11 -> [ 44@0 ]  20 -> [ 48@0 53@0 ]  22 -> [ 48@0 53@0 ]  23 -> [ 48@0 53@0 ]  24 -> [ 24@0 ]  26 -> [ 24@0 ]  27 -> [ 24@0 ]  33 -> [ 21@0 ]  34 -> [ 21@0 ]  35 -> [ 21@0 ]  37 -> [ 12@0 ]  38 -> [ 12@0 ]  44 -> [ 17@0 29@0 ]  45 -> [ 17@0 29@0 ]  47 -> [ 17@0 29@0 ]  58 -> [ 2@0 6@0 16@0 28@0 ]  61 -> [ 8@0 11@0 30@0 ]  ].
38 | network_0/router_level3_48/vc_allocator | Input grants = [ 12 -> 37  16 -> 58  17 -> 45  21 -> 33  24 -> 26  29 -> 44  30 -> 61  36 -> 1  44 -> 8  48 -> 20  ], output grants = [ 1 -> 36  8 -> 44  20 -> 48  26 -> 24  33 -> 21  37 -> 12  44 -> 29  45 -> 17  58 -> 16  61 -> 30  ].
38 | network_0/router_level3_48 | Assigning VC 1 at output 0 to VC 0 at input 9.
38 | network_0/router_level3_48 | Completed VC allocation for VC 0 at input 9 (front: 6).
38 | network_0/router_level3_48 |   Acquiring assigned VC 1 at output 0.
38 | network_0/router_level3_48/buf_9/vc_0 | Changing state from vc_alloc to active.
39 | network_0/router_level3_48 | Beginning switch allocation for VC 0 at input 9 (front: 6).
39 | network_0/router_level3_48 |   Requesting output 0.0 (non-spec, pri: 0).
39 | network_0/router_level3_48/sw_allocator | Input requests = [ 0 -> [ 14@0 15@0 ]  1 -> [ 15@0 ]  2 -> [ 10@0 ]  3 -> [ 9@0 10@0 14@0 ]  4 -> [ 9@0 11@0 12@0 14@0 ]  5 -> [ 8@0 11@0 13@0 ]  6 -> [ 6@0 ]  7 -> [ 11@0 13@0 15@0 ]  9 -> [ 0@0 ]  11 -> [ 2@0 ]  12 -> [ 5@0 ]  ], output requests = [ 0 -> [ 9@0 ]  2 -> [ 11@0 ]  5 -> [ 12@0 ]  6 -> [ 6@0 ]  8 -> [ 5@0 ]  9 -> [ 3@0 4@0 ]  10 -> [ 2@0 3@0 ]  11 -> [ 4@0 5@0 7@0 ]  12 -> [ 4@0 ]  13 -> [ 5@0 7@0 ]  14 -> [ 0@0 3@0 4@0 ]  15 -> [ 0@0 1@0 7@0 ]  ].
39 | network_0/router_level3_48/sw_allocator | Input grants = [ 0 -> 14  1 -> 15  2 -> 10  4 -> 12  5 -> 8  6 -> 6  7 -> 11  9 -> 0  11 -> 2  12 -> 5  ], output grants = [ 0 -> 9  2 -> 11  5 -> 12  6 -> 6  8 -> 5  10 -> 2  11 -> 7  12 -> 4  14 -> 0  15 -> 1  ].
39 | network_0/router_level3_48 | Assigning output 0.0 to VC 0 at input 9.0.
39 | network_0/router_level3_48 | Completed switch allocation for VC 0 at input 9 (front: 6).
39 | network_0/router_level3_48 |   Scheduling switch connection from input 9.0 to output 0.0.
40 | network_0/router_level3_48 | Beginning crossbar traversal for flit 6 from input 9.0 to output 0.0.
40 | network_0/router_level3_48 | Completed crossbar traversal for flit 6 from input 9.0 to output 0.0.
40 | network_0/router_level3_48 | Buffering flit 6 at output 0.
40 | network_0/router_level3_48 | Sending flit 6 to channel at output 0.
41 | network_0/network_0_fchan_egress384 | Beginning channel traversal for flit 6 with delay 1.
41 | network_0/network_0_fchan_egress384 | Completed channel traversal for flit 6.
42 | node384 | Ejecting flit 6 (packet 6) from VC 1.
42 | node384 | Injecting credit for VC 1 into subnet 0.
42 | node384 | Retiring flit 6 (packet 6, src = 6, dest = 384, hops = 5, flat = 42).
42 | node384 | Retiring packet 6 (plat = 42, nlat = 42, frag = 0, src = 6, dest = 384).
Class 0:
Packet latency average = 378.406
	minimum = 6
	maximum = 923
Network latency average = 376.033
	minimum = 6
	maximum = 923
Slowest packet = 276413
Flit latency average = 376.033
	minimum = 6
	maximum = 923
Slowest flit = 276413
Fragmentation average = 0
	minimum = 0
	maximum = 0
Injected packet rate average = 0.38132
	minimum = 0.274 (at node 1926)
	maximum = 1 (at node 0)
Accepted packet rate average = 0.206635
	minimum = 0.141 (at node 4051)
	maximum = 0.994 (at node 0)
Injected flit rate average = 0.38132
	minimum = 0.274 (at node 1926)
	maximum = 1 (at node 0)
Accepted flit rate average= 0.206635
	minimum = 0.141 (at node 4051)
	maximum = 0.994 (at node 0)
Injected packet length average = 1
Accepted packet length average = 1
Total in-flight flits = 718828 (0 measured)
latency change    = 1
throughput change = 1
Average latency for class 0 exceeded 500 cycles. Aborting simulation.
Too many sample periods needed to converge
Simulation unstable, ending ...
Total run time 138.464
