BEGIN Configuration File: examples/fattree_config_0.65_1_bitcomp
// $Id: dragonflyconfig 3555 2011-05-16 23:37:55Z dub $

// Copyright (c) 2007-2015, Trustees of The Leland Stanford Junior University
// All rights reserved.
//
// Redistribution and use in source and binary forms, with or without
// modification, are permitted provided that the following conditions are met:
//
// Redistributions of source code must retain the above copyright notice, this
// list of conditions and the following disclaimer.
// Redistributions in binary form must reproduce the above copyright notice,
// this list of conditions and the following disclaimer in the documentation
// and/or other materials provided with the distribution.
//
// THIS SOFTWARE IS PROVIDED BY THE COPYRIGHT HOLDERS AND CONTRIBUTORS "AS IS"
// AND ANY EXPRESS OR IMPLIED WARRANTIES, INCLUDING, BUT NOT LIMITED TO, THE
// IMPLIED WARRANTIES OF MERCHANTABILITY AND FITNESS FOR A PARTICULAR PURPOSE
// ARE DISCLAIMED. IN NO EVENT SHALL THE COPYRIGHT OWNER OR CONTRIBUTORS BE
// LIABLE FOR ANY DIRECT, INDIRECT, INCIDENTAL, SPECIAL, EXEMPLARY, OR
// CONSEQUENTIAL DAMAGES (INCLUDING, BUT NOT LIMITED TO, PROCUREMENT OF
// SUBSTITUTE GOODS OR SERVICES; LOSS OF USE, DATA, OR PROFITS; OR BUSINESS
// INTERRUPTION) HOWEVER CAUSED AND ON ANY THEORY OF LIABILITY, WHETHER IN
// CONTRACT, STRICT LIABILITY, OR TORT (INCLUDING NEGLIGENCE OR OTHERWISE)
// ARISING IN ANY WAY OUT OF THE USE OF THIS SOFTWARE, EVEN IF ADVISED OF THE
// POSSIBILITY OF SUCH DAMAGE.


hold_switch_for_packet=1;

vc_buf_size = 16;


wait_for_tail_credit = 0;

//
// Router architecture
//
vc_allocator = separable_input_first; 
sw_allocator = separable_input_first;
alloc_iters  = 1;

credit_delay   = 2;
routing_delay  = 0;
vc_alloc_delay = 1;
sw_alloc_delay = 1;
st_final_delay = 1;

input_speedup     = 1;
output_speedup    = 1;
internal_speedup  = 1.0;


warmup_periods = 3;
sim_count          = 1;

sample_period  = 1000;  

routing_function = nca;
num_vcs     = 4;

priority = none;
traffic = bitcomp;


injection_rate = 0.65;
packet_size = 1;
injection_rate_uses_flits=1;

topology = fattree;

k  = 8;
n  = 4;
t = 1;

watch_file = watchfile.txt;
watch_out=-;
stats_out = examples/fattree_config_0.65_1_bitcomp.m;

END Configuration File: examples/fattree_config_0.65_1_bitcomp
Fat Tree
 k = 8 levels = 4
 each switch - total radix =  16
 # of switches = 2048
 # of channels = 24576
 # of nodes ( size of network ) = 4096
 tapering factor = 1
0 | node4 | Enqueuing flit 1 (packet 1) at time 0.
0 | node5 | Enqueuing flit 2 (packet 2) at time 0.
0 | node8 | Enqueuing flit 3 (packet 3) at time 0.
0 | node9 | Enqueuing flit 4 (packet 4) at time 0.
0 | node11 | Enqueuing flit 5 (packet 5) at time 0.
0 | node12 | Enqueuing flit 6 (packet 6) at time 0.
0 | node13 | Enqueuing flit 7 (packet 7) at time 0.
0 | node14 | Enqueuing flit 8 (packet 8) at time 0.
0 | node15 | Enqueuing flit 9 (packet 9) at time 0.
0 | node17 | Enqueuing flit 10 (packet 10) at time 0.
0 | traffic_manager | Finding output VC for flit 1:
0 | traffic_manager |   Selected output VC 0.
0 | node4 | Generating lookahead routing info for flit 1.
0 | node4 | Injecting flit 1 into subnet 0 at time 0 with priority 0.
0 | traffic_manager | Finding output VC for flit 2:
0 | traffic_manager |   Selected output VC 0.
0 | node5 | Generating lookahead routing info for flit 2.
0 | node5 | Injecting flit 2 into subnet 0 at time 0 with priority 0.
0 | traffic_manager | Finding output VC for flit 3:
0 | traffic_manager |   Selected output VC 0.
0 | node8 | Generating lookahead routing info for flit 3.
0 | node8 | Injecting flit 3 into subnet 0 at time 0 with priority 0.
0 | traffic_manager | Finding output VC for flit 4:
0 | traffic_manager |   Selected output VC 0.
0 | node9 | Generating lookahead routing info for flit 4.
0 | node9 | Injecting flit 4 into subnet 0 at time 0 with priority 0.
0 | traffic_manager | Finding output VC for flit 5:
0 | traffic_manager |   Selected output VC 0.
0 | node11 | Generating lookahead routing info for flit 5.
0 | node11 | Injecting flit 5 into subnet 0 at time 0 with priority 0.
0 | traffic_manager | Finding output VC for flit 6:
0 | traffic_manager |   Selected output VC 0.
0 | node12 | Generating lookahead routing info for flit 6.
0 | node12 | Injecting flit 6 into subnet 0 at time 0 with priority 0.
0 | traffic_manager | Finding output VC for flit 7:
0 | traffic_manager |   Selected output VC 0.
0 | node13 | Generating lookahead routing info for flit 7.
0 | node13 | Injecting flit 7 into subnet 0 at time 0 with priority 0.
0 | traffic_manager | Finding output VC for flit 8:
0 | traffic_manager |   Selected output VC 0.
0 | node14 | Generating lookahead routing info for flit 8.
0 | node14 | Injecting flit 8 into subnet 0 at time 0 with priority 0.
0 | traffic_manager | Finding output VC for flit 9:
0 | traffic_manager |   Selected output VC 0.
0 | node15 | Generating lookahead routing info for flit 9.
0 | node15 | Injecting flit 9 into subnet 0 at time 0 with priority 0.
0 | traffic_manager | Finding output VC for flit 10:
0 | traffic_manager |   Selected output VC 0.
0 | node17 | Generating lookahead routing info for flit 10.
0 | node17 | Injecting flit 10 into subnet 0 at time 0 with priority 0.
1 | network_0/network_0_fchan_ingress4 | Beginning channel traversal for flit 1 with delay 1.
1 | network_0/network_0_fchan_ingress5 | Beginning channel traversal for flit 2 with delay 1.
1 | network_0/network_0_fchan_ingress8 | Beginning channel traversal for flit 3 with delay 1.
1 | network_0/network_0_fchan_ingress9 | Beginning channel traversal for flit 4 with delay 1.
1 | network_0/network_0_fchan_ingress11 | Beginning channel traversal for flit 5 with delay 1.
1 | network_0/network_0_fchan_ingress12 | Beginning channel traversal for flit 6 with delay 1.
1 | network_0/network_0_fchan_ingress13 | Beginning channel traversal for flit 7 with delay 1.
1 | network_0/network_0_fchan_ingress14 | Beginning channel traversal for flit 8 with delay 1.
1 | network_0/network_0_fchan_ingress15 | Beginning channel traversal for flit 9 with delay 1.
1 | network_0/network_0_fchan_ingress17 | Beginning channel traversal for flit 10 with delay 1.
1 | network_0/network_0_fchan_ingress4 | Completed channel traversal for flit 1.
1 | network_0/network_0_fchan_ingress5 | Completed channel traversal for flit 2.
1 | network_0/network_0_fchan_ingress8 | Completed channel traversal for flit 3.
1 | network_0/network_0_fchan_ingress9 | Completed channel traversal for flit 4.
1 | network_0/network_0_fchan_ingress11 | Completed channel traversal for flit 5.
1 | network_0/network_0_fchan_ingress12 | Completed channel traversal for flit 6.
1 | network_0/network_0_fchan_ingress13 | Completed channel traversal for flit 7.
1 | network_0/network_0_fchan_ingress14 | Completed channel traversal for flit 8.
1 | network_0/network_0_fchan_ingress15 | Completed channel traversal for flit 9.
1 | network_0/network_0_fchan_ingress17 | Completed channel traversal for flit 10.
2 | network_0/router_level3_0 | Received flit 1 from channel at input 4.
2 | network_0/router_level3_0 | Received flit 2 from channel at input 5.
2 | network_0/router_level3_1 | Received flit 3 from channel at input 0.
2 | network_0/router_level3_1 | Received flit 4 from channel at input 1.
2 | network_0/router_level3_1 | Received flit 5 from channel at input 3.
2 | network_0/router_level3_1 | Received flit 6 from channel at input 4.
2 | network_0/router_level3_1 | Received flit 7 from channel at input 5.
2 | network_0/router_level3_1 | Received flit 8 from channel at input 6.
2 | network_0/router_level3_1 | Received flit 9 from channel at input 7.
2 | network_0/router_level3_2 | Received flit 10 from channel at input 1.
2 | network_0/router_level3_0 | Adding flit 1 to VC 0 at input 4 (state: idle, empty).
2 | network_0/router_level3_0 | Using precomputed lookahead routing information for VC 0 at input 4 (front: 1).
2 | network_0/router_level3_0/buf_4/vc_0 | Changing state from idle to vc_alloc.
2 | network_0/router_level3_0 | Adding flit 2 to VC 0 at input 5 (state: idle, empty).
2 | network_0/router_level3_0 | Using precomputed lookahead routing information for VC 0 at input 5 (front: 2).
2 | network_0/router_level3_0/buf_5/vc_0 | Changing state from idle to vc_alloc.
2 | network_0/router_level3_0 | Beginning VC allocation for VC 0 at input 4 (front: 1).
2 | network_0/router_level3_0 |   Requesting VC 0 at output 15 (in_pri: 0, out_pri: 0).
2 | network_0/router_level3_0 |   Requesting VC 1 at output 15 (in_pri: 0, out_pri: 0).
2 | network_0/router_level3_0 |   Requesting VC 2 at output 15 (in_pri: 0, out_pri: 0).
2 | network_0/router_level3_0 |   Requesting VC 3 at output 15 (in_pri: 0, out_pri: 0).
2 | network_0/router_level3_0 | Beginning VC allocation for VC 0 at input 5 (front: 2).
2 | network_0/router_level3_0 |   Requesting VC 0 at output 15 (in_pri: 0, out_pri: 0).
2 | network_0/router_level3_0 |   Requesting VC 1 at output 15 (in_pri: 0, out_pri: 0).
2 | network_0/router_level3_0 |   Requesting VC 2 at output 15 (in_pri: 0, out_pri: 0).
2 | network_0/router_level3_0 |   Requesting VC 3 at output 15 (in_pri: 0, out_pri: 0).
2 | network_0/router_level3_0/vc_allocator | Input requests = [ 4 -> [ 36@0 37@0 38@0 39@0 ]  16 -> [ 60@0 61@0 62@0 63@0 ]  20 -> [ 60@0 61@0 62@0 63@0 ]  ], output requests = [ 36 -> [ 4@0 ]  37 -> [ 4@0 ]  38 -> [ 4@0 ]  39 -> [ 4@0 ]  60 -> [ 16@0 20@0 ]  61 -> [ 16@0 20@0 ]  62 -> [ 16@0 20@0 ]  63 -> [ 16@0 20@0 ]  ].
2 | network_0/router_level3_0/vc_allocator | Input grants = [ 4 -> 36  16 -> 60  ], output grants = [ 36 -> 4  60 -> 16  ].
2 | network_0/router_level3_0 | Assigning VC 0 at output 15 to VC 0 at input 4.
2 | network_0/router_level3_0 | VC allocation failed for VC 0 at input 5.
2 | network_0/router_level3_0 | Completed VC allocation for VC 0 at input 4 (front: 1).
2 | network_0/router_level3_0 |   Acquiring assigned VC 0 at output 15.
2 | network_0/router_level3_0/buf_4/vc_0 | Changing state from vc_alloc to active.
2 | network_0/router_level3_0 | Completed VC allocation for VC 0 at input 5 (front: 2).
2 | network_0/router_level3_0 |   No output VC allocated.
2 | network_0/router_level3_1 | Adding flit 3 to VC 0 at input 0 (state: idle, empty).
2 | network_0/router_level3_1 | Using precomputed lookahead routing information for VC 0 at input 0 (front: 3).
2 | network_0/router_level3_1/buf_0/vc_0 | Changing state from idle to vc_alloc.
2 | network_0/router_level3_1 | Adding flit 4 to VC 0 at input 1 (state: idle, empty).
2 | network_0/router_level3_1 | Using precomputed lookahead routing information for VC 0 at input 1 (front: 4).
2 | network_0/router_level3_1/buf_1/vc_0 | Changing state from idle to vc_alloc.
2 | network_0/router_level3_1 | Adding flit 5 to VC 0 at input 3 (state: idle, empty).
2 | network_0/router_level3_1 | Using precomputed lookahead routing information for VC 0 at input 3 (front: 5).
2 | network_0/router_level3_1/buf_3/vc_0 | Changing state from idle to vc_alloc.
2 | network_0/router_level3_1 | Adding flit 6 to VC 0 at input 4 (state: idle, empty).
2 | network_0/router_level3_1 | Using precomputed lookahead routing information for VC 0 at input 4 (front: 6).
2 | network_0/router_level3_1/buf_4/vc_0 | Changing state from idle to vc_alloc.
2 | network_0/router_level3_1 | Adding flit 7 to VC 0 at input 5 (state: idle, empty).
2 | network_0/router_level3_1 | Using precomputed lookahead routing information for VC 0 at input 5 (front: 7).
2 | network_0/router_level3_1/buf_5/vc_0 | Changing state from idle to vc_alloc.
2 | network_0/router_level3_1 | Adding flit 8 to VC 0 at input 6 (state: idle, empty).
2 | network_0/router_level3_1 | Using precomputed lookahead routing information for VC 0 at input 6 (front: 8).
2 | network_0/router_level3_1/buf_6/vc_0 | Changing state from idle to vc_alloc.
2 | network_0/router_level3_1 | Adding flit 9 to VC 0 at input 7 (state: idle, empty).
2 | network_0/router_level3_1 | Using precomputed lookahead routing information for VC 0 at input 7 (front: 9).
2 | network_0/router_level3_1/buf_7/vc_0 | Changing state from idle to vc_alloc.
2 | network_0/router_level3_1 | Beginning VC allocation for VC 0 at input 0 (front: 3).
2 | network_0/router_level3_1 |   Requesting VC 0 at output 15 (in_pri: 0, out_pri: 0).
2 | network_0/router_level3_1 |   Requesting VC 1 at output 15 (in_pri: 0, out_pri: 0).
2 | network_0/router_level3_1 |   Requesting VC 2 at output 15 (in_pri: 0, out_pri: 0).
2 | network_0/router_level3_1 |   Requesting VC 3 at output 15 (in_pri: 0, out_pri: 0).
2 | network_0/router_level3_1 | Beginning VC allocation for VC 0 at input 1 (front: 4).
2 | network_0/router_level3_1 |   Requesting VC 0 at output 9 (in_pri: 0, out_pri: 0).
2 | network_0/router_level3_1 |   Requesting VC 1 at output 9 (in_pri: 0, out_pri: 0).
2 | network_0/router_level3_1 |   Requesting VC 2 at output 9 (in_pri: 0, out_pri: 0).
2 | network_0/router_level3_1 |   Requesting VC 3 at output 9 (in_pri: 0, out_pri: 0).
2 | network_0/router_level3_1 | Beginning VC allocation for VC 0 at input 3 (front: 5).
2 | network_0/router_level3_1 |   Requesting VC 0 at output 9 (in_pri: 0, out_pri: 0).
2 | network_0/router_level3_1 |   Requesting VC 1 at output 9 (in_pri: 0, out_pri: 0).
2 | network_0/router_level3_1 |   Requesting VC 2 at output 9 (in_pri: 0, out_pri: 0).
2 | network_0/router_level3_1 |   Requesting VC 3 at output 9 (in_pri: 0, out_pri: 0).
2 | network_0/router_level3_1 | Beginning VC allocation for VC 0 at input 4 (front: 6).
2 | network_0/router_level3_1 |   Requesting VC 0 at output 12 (in_pri: 0, out_pri: 0).
2 | network_0/router_level3_1 |   Requesting VC 1 at output 12 (in_pri: 0, out_pri: 0).
2 | network_0/router_level3_1 |   Requesting VC 2 at output 12 (in_pri: 0, out_pri: 0).
2 | network_0/router_level3_1 |   Requesting VC 3 at output 12 (in_pri: 0, out_pri: 0).
2 | network_0/router_level3_1 | Beginning VC allocation for VC 0 at input 5 (front: 7).
2 | network_0/router_level3_1 |   Requesting VC 0 at output 11 (in_pri: 0, out_pri: 0).
2 | network_0/router_level3_1 |   Requesting VC 1 at output 11 (in_pri: 0, out_pri: 0).
2 | network_0/router_level3_1 |   Requesting VC 2 at output 11 (in_pri: 0, out_pri: 0).
2 | network_0/router_level3_1 |   Requesting VC 3 at output 11 (in_pri: 0, out_pri: 0).
2 | network_0/router_level3_1 | Beginning VC allocation for VC 0 at input 6 (front: 8).
2 | network_0/router_level3_1 |   Requesting VC 0 at output 10 (in_pri: 0, out_pri: 0).
2 | network_0/router_level3_1 |   Requesting VC 1 at output 10 (in_pri: 0, out_pri: 0).
2 | network_0/router_level3_1 |   Requesting VC 2 at output 10 (in_pri: 0, out_pri: 0).
2 | network_0/router_level3_1 |   Requesting VC 3 at output 10 (in_pri: 0, out_pri: 0).
2 | network_0/router_level3_1 | Beginning VC allocation for VC 0 at input 7 (front: 9).
2 | network_0/router_level3_1 |   Requesting VC 0 at output 14 (in_pri: 0, out_pri: 0).
2 | network_0/router_level3_1 |   Requesting VC 1 at output 14 (in_pri: 0, out_pri: 0).
2 | network_0/router_level3_1 |   Requesting VC 2 at output 14 (in_pri: 0, out_pri: 0).
2 | network_0/router_level3_1 |   Requesting VC 3 at output 14 (in_pri: 0, out_pri: 0).
2 | network_0/router_level3_1/vc_allocator | Input requests = [ 0 -> [ 60@0 61@0 62@0 63@0 ]  4 -> [ 36@0 37@0 38@0 39@0 ]  12 -> [ 36@0 37@0 38@0 39@0 ]  16 -> [ 48@0 49@0 50@0 51@0 ]  20 -> [ 44@0 45@0 46@0 47@0 ]  24 -> [ 40@0 41@0 42@0 43@0 ]  28 -> [ 56@0 57@0 58@0 59@0 ]  ], output requests = [ 36 -> [ 4@0 12@0 ]  37 -> [ 4@0 12@0 ]  38 -> [ 4@0 12@0 ]  39 -> [ 4@0 12@0 ]  40 -> [ 24@0 ]  41 -> [ 24@0 ]  42 -> [ 24@0 ]  43 -> [ 24@0 ]  44 -> [ 20@0 ]  45 -> [ 20@0 ]  46 -> [ 20@0 ]  47 -> [ 20@0 ]  48 -> [ 16@0 ]  49 -> [ 16@0 ]  50 -> [ 16@0 ]  51 -> [ 16@0 ]  56 -> [ 28@0 ]  57 -> [ 28@0 ]  58 -> [ 28@0 ]  59 -> [ 28@0 ]  60 -> [ 0@0 ]  61 -> [ 0@0 ]  62 -> [ 0@0 ]  63 -> [ 0@0 ]  ].
2 | network_0/router_level3_1/vc_allocator | Input grants = [ 0 -> 60  4 -> 36  16 -> 48  20 -> 44  24 -> 40  28 -> 56  ], output grants = [ 36 -> 4  40 -> 24  44 -> 20  48 -> 16  56 -> 28  60 -> 0  ].
2 | network_0/router_level3_1 | Assigning VC 0 at output 15 to VC 0 at input 0.
2 | network_0/router_level3_1 | Assigning VC 0 at output 9 to VC 0 at input 1.
2 | network_0/router_level3_1 | VC allocation failed for VC 0 at input 3.
2 | network_0/router_level3_1 | Assigning VC 0 at output 12 to VC 0 at input 4.
2 | network_0/router_level3_1 | Assigning VC 0 at output 11 to VC 0 at input 5.
2 | network_0/router_level3_1 | Assigning VC 0 at output 10 to VC 0 at input 6.
2 | network_0/router_level3_1 | Assigning VC 0 at output 14 to VC 0 at input 7.
2 | network_0/router_level3_1 | Completed VC allocation for VC 0 at input 0 (front: 3).
2 | network_0/router_level3_1 |   Acquiring assigned VC 0 at output 15.
2 | network_0/router_level3_1/buf_0/vc_0 | Changing state from vc_alloc to active.
2 | network_0/router_level3_1 | Completed VC allocation for VC 0 at input 1 (front: 4).
2 | network_0/router_level3_1 |   Acquiring assigned VC 0 at output 9.
2 | network_0/router_level3_1/buf_1/vc_0 | Changing state from vc_alloc to active.
2 | network_0/router_level3_1 | Completed VC allocation for VC 0 at input 3 (front: 5).
2 | network_0/router_level3_1 |   No output VC allocated.
2 | network_0/router_level3_1 | Completed VC allocation for VC 0 at input 4 (front: 6).
2 | network_0/router_level3_1 |   Acquiring assigned VC 0 at output 12.
2 | network_0/router_level3_1/buf_4/vc_0 | Changing state from vc_alloc to active.
2 | network_0/router_level3_1 | Completed VC allocation for VC 0 at input 5 (front: 7).
2 | network_0/router_level3_1 |   Acquiring assigned VC 0 at output 11.
2 | network_0/router_level3_1/buf_5/vc_0 | Changing state from vc_alloc to active.
2 | network_0/router_level3_1 | Completed VC allocation for VC 0 at input 6 (front: 8).
2 | network_0/router_level3_1 |   Acquiring assigned VC 0 at output 10.
2 | network_0/router_level3_1/buf_6/vc_0 | Changing state from vc_alloc to active.
2 | network_0/router_level3_1 | Completed VC allocation for VC 0 at input 7 (front: 9).
2 | network_0/router_level3_1 |   Acquiring assigned VC 0 at output 14.
2 | network_0/router_level3_1/buf_7/vc_0 | Changing state from vc_alloc to active.
2 | network_0/router_level3_2 | Adding flit 10 to VC 0 at input 1 (state: idle, empty).
2 | network_0/router_level3_2 | Using precomputed lookahead routing information for VC 0 at input 1 (front: 10).
2 | network_0/router_level3_2/buf_1/vc_0 | Changing state from idle to vc_alloc.
2 | network_0/router_level3_2 | Beginning VC allocation for VC 0 at input 1 (front: 10).
2 | network_0/router_level3_2 |   Requesting VC 0 at output 12 (in_pri: 0, out_pri: 0).
2 | network_0/router_level3_2 |   Requesting VC 1 at output 12 (in_pri: 0, out_pri: 0).
2 | network_0/router_level3_2 |   Requesting VC 2 at output 12 (in_pri: 0, out_pri: 0).
2 | network_0/router_level3_2 |   Requesting VC 3 at output 12 (in_pri: 0, out_pri: 0).
2 | network_0/router_level3_2/vc_allocator | Input requests = [ 4 -> [ 48@0 49@0 50@0 51@0 ]  8 -> [ 36@0 37@0 38@0 39@0 ]  12 -> [ 60@0 61@0 62@0 63@0 ]  16 -> [ 36@0 37@0 38@0 39@0 ]  20 -> [ 48@0 49@0 50@0 51@0 ]  24 -> [ 32@0 33@0 34@0 35@0 ]  28 -> [ 48@0 49@0 50@0 51@0 ]  ], output requests = [ 32 -> [ 24@0 ]  33 -> [ 24@0 ]  34 -> [ 24@0 ]  35 -> [ 24@0 ]  36 -> [ 8@0 16@0 ]  37 -> [ 8@0 16@0 ]  38 -> [ 8@0 16@0 ]  39 -> [ 8@0 16@0 ]  48 -> [ 4@0 20@0 28@0 ]  49 -> [ 4@0 20@0 28@0 ]  50 -> [ 4@0 20@0 28@0 ]  51 -> [ 4@0 20@0 28@0 ]  60 -> [ 12@0 ]  61 -> [ 12@0 ]  62 -> [ 12@0 ]  63 -> [ 12@0 ]  ].
2 | network_0/router_level3_2/vc_allocator | Input grants = [ 4 -> 48  8 -> 36  12 -> 60  24 -> 32  ], output grants = [ 32 -> 24  36 -> 8  48 -> 4  60 -> 12  ].
2 | network_0/router_level3_2 | Assigning VC 0 at output 12 to VC 0 at input 1.
2 | network_0/router_level3_2 | Completed VC allocation for VC 0 at input 1 (front: 10).
2 | network_0/router_level3_2 |   Acquiring assigned VC 0 at output 12.
2 | network_0/router_level3_2/buf_1/vc_0 | Changing state from vc_alloc to active.
3 | network_0/router_level3_0 | Beginning VC allocation for VC 0 at input 5 (front: 2).
3 | network_0/router_level3_0 |   VC 0 at output 15 is in use by VC 0 at input 4 (front flit: 1).
3 | network_0/router_level3_0 |   Requesting VC 1 at output 15 (in_pri: 0, out_pri: 0).
3 | network_0/router_level3_0 |   Requesting VC 2 at output 15 (in_pri: 0, out_pri: 0).
3 | network_0/router_level3_0 |   Requesting VC 3 at output 15 (in_pri: 0, out_pri: 0).
3 | network_0/router_level3_0/vc_allocator | Input requests = [ 0 -> [ 40@0 41@0 42@0 43@0 ]  5 -> [ 48@0 49@0 50@0 51@0 ]  8 -> [ 56@0 57@0 58@0 59@0 ]  12 -> [ 61@0 62@0 63@0 ]  17 -> [ 48@0 49@0 50@0 51@0 ]  20 -> [ 61@0 62@0 63@0 ]  21 -> [ 56@0 57@0 58@0 59@0 ]  24 -> [ 56@0 57@0 58@0 59@0 ]  ], output requests = [ 40 -> [ 0@0 ]  41 -> [ 0@0 ]  42 -> [ 0@0 ]  43 -> [ 0@0 ]  48 -> [ 5@0 17@0 ]  49 -> [ 5@0 17@0 ]  50 -> [ 5@0 17@0 ]  51 -> [ 5@0 17@0 ]  56 -> [ 8@0 21@0 24@0 ]  57 -> [ 8@0 21@0 24@0 ]  58 -> [ 8@0 21@0 24@0 ]  59 -> [ 8@0 21@0 24@0 ]  61 -> [ 12@0 20@0 ]  62 -> [ 12@0 20@0 ]  63 -> [ 12@0 20@0 ]  ].
3 | network_0/router_level3_0/vc_allocator | Input grants = [ 0 -> 40  5 -> 48  8 -> 56  12 -> 61  ], output grants = [ 40 -> 0  48 -> 5  56 -> 8  61 -> 12  ].
3 | network_0/router_level3_0 | VC allocation failed for VC 0 at input 5.
3 | network_0/router_level3_0 | Beginning switch allocation for VC 0 at input 4 (front: 1).
3 | network_0/router_level3_0 |   Requesting output 15.0 (non-spec, pri: 0).
3 | network_0/router_level3_0/sw_allocator | Input requests = [ 1 -> [ 9@0 ]  4 -> [ 15@0 ]  ], output requests = [ 9 -> [ 1@0 ]  15 -> [ 4@0 ]  ].
3 | network_0/router_level3_0/sw_allocator | Input grants = [ 1 -> 9  4 -> 15  ], output grants = [ 9 -> 1  15 -> 4  ].
3 | network_0/router_level3_0 | Assigning output 15.0 to VC 0 at input 4.0.
3 | network_0/router_level3_0 | Completed VC allocation for VC 0 at input 5 (front: 2).
3 | network_0/router_level3_0 |   No output VC allocated.
3 | network_0/router_level3_0 | Completed switch allocation for VC 0 at input 4 (front: 1).
3 | network_0/router_level3_0 |   Scheduling switch connection from input 4.0 to output 15.0.
3 | network_0/router_level3_0 | Updating lookahead routing information for flit 1.
3 | network_0/router_level3_1 | Beginning VC allocation for VC 0 at input 3 (front: 5).
3 | network_0/router_level3_1 |   VC 0 at output 9 is in use by VC 0 at input 1 (front flit: 4).
3 | network_0/router_level3_1 |   Requesting VC 1 at output 9 (in_pri: 0, out_pri: 0).
3 | network_0/router_level3_1 |   Requesting VC 2 at output 9 (in_pri: 0, out_pri: 0).
3 | network_0/router_level3_1 |   Requesting VC 3 at output 9 (in_pri: 0, out_pri: 0).
3 | network_0/router_level3_1/vc_allocator | Input requests = [ 5 -> [ 37@0 38@0 39@0 ]  12 -> [ 37@0 38@0 39@0 ]  17 -> [ 45@0 46@0 47@0 ]  21 -> [ 52@0 53@0 54@0 55@0 ]  25 -> [ 52@0 53@0 54@0 55@0 ]  ], output requests = [ 37 -> [ 5@0 12@0 ]  38 -> [ 5@0 12@0 ]  39 -> [ 5@0 12@0 ]  45 -> [ 17@0 ]  46 -> [ 17@0 ]  47 -> [ 17@0 ]  52 -> [ 21@0 25@0 ]  53 -> [ 21@0 25@0 ]  54 -> [ 21@0 25@0 ]  55 -> [ 21@0 25@0 ]  ].
3 | network_0/router_level3_1/vc_allocator | Input grants = [ 5 -> 37  17 -> 45  21 -> 52  ], output grants = [ 37 -> 5  45 -> 17  52 -> 21  ].
3 | network_0/router_level3_1 | VC allocation failed for VC 0 at input 3.
3 | network_0/router_level3_1 | Beginning switch allocation for VC 0 at input 0 (front: 3).
3 | network_0/router_level3_1 |   Requesting output 15.0 (non-spec, pri: 0).
3 | network_0/router_level3_1 | Beginning switch allocation for VC 0 at input 1 (front: 4).
3 | network_0/router_level3_1 |   Requesting output 9.0 (non-spec, pri: 0).
3 | network_0/router_level3_1 | Beginning switch allocation for VC 0 at input 4 (front: 6).
3 | network_0/router_level3_1 |   Requesting output 12.0 (non-spec, pri: 0).
3 | network_0/router_level3_1 | Beginning switch allocation for VC 0 at input 5 (front: 7).
3 | network_0/router_level3_1 |   Requesting output 11.0 (non-spec, pri: 0).
3 | network_0/router_level3_1 | Beginning switch allocation for VC 0 at input 6 (front: 8).
3 | network_0/router_level3_1 |   Requesting output 10.0 (non-spec, pri: 0).
3 | network_0/router_level3_1 | Beginning switch allocation for VC 0 at input 7 (front: 9).
3 | network_0/router_level3_1 |   Requesting output 14.0 (non-spec, pri: 0).
3 | network_0/router_level3_1/sw_allocator | Input requests = [ 0 -> [ 15@0 ]  1 -> [ 9@0 ]  4 -> [ 12@0 ]  5 -> [ 11@0 ]  6 -> [ 10@0 ]  7 -> [ 14@0 ]  ], output requests = [ 9 -> [ 1@0 ]  10 -> [ 6@0 ]  11 -> [ 5@0 ]  12 -> [ 4@0 ]  14 -> [ 7@0 ]  15 -> [ 0@0 ]  ].
3 | network_0/router_level3_1/sw_allocator | Input grants = [ 0 -> 15  1 -> 9  4 -> 12  5 -> 11  6 -> 10  7 -> 14  ], output grants = [ 9 -> 1  10 -> 6  11 -> 5  12 -> 4  14 -> 7  15 -> 0  ].
3 | network_0/router_level3_1 | Assigning output 15.0 to VC 0 at input 0.0.
3 | network_0/router_level3_1 | Assigning output 9.0 to VC 0 at input 1.0.
3 | network_0/router_level3_1 | Assigning output 12.0 to VC 0 at input 4.0.
3 | network_0/router_level3_1 | Assigning output 11.0 to VC 0 at input 5.0.
3 | network_0/router_level3_1 | Assigning output 10.0 to VC 0 at input 6.0.
3 | network_0/router_level3_1 | Assigning output 14.0 to VC 0 at input 7.0.
3 | network_0/router_level3_1 | Completed VC allocation for VC 0 at input 3 (front: 5).
3 | network_0/router_level3_1 |   No output VC allocated.
3 | network_0/router_level3_1 | Completed switch allocation for VC 0 at input 0 (front: 3).
3 | network_0/router_level3_1 |   Scheduling switch connection from input 0.0 to output 15.0.
3 | network_0/router_level3_1 | Updating lookahead routing information for flit 3.
3 | network_0/router_level3_1 | Completed switch allocation for VC 0 at input 1 (front: 4).
3 | network_0/router_level3_1 |   Scheduling switch connection from input 1.0 to output 9.0.
3 | network_0/router_level3_1 | Updating lookahead routing information for flit 4.
3 | network_0/router_level3_1 | Completed switch allocation for VC 0 at input 4 (front: 6).
3 | network_0/router_level3_1 |   Scheduling switch connection from input 4.0 to output 12.0.
3 | network_0/router_level3_1 | Updating lookahead routing information for flit 6.
3 | network_0/router_level3_1 | Completed switch allocation for VC 0 at input 5 (front: 7).
3 | network_0/router_level3_1 |   Scheduling switch connection from input 5.0 to output 11.0.
3 | network_0/router_level3_1 | Updating lookahead routing information for flit 7.
3 | network_0/router_level3_1 | Completed switch allocation for VC 0 at input 6 (front: 8).
3 | network_0/router_level3_1 |   Scheduling switch connection from input 6.0 to output 10.0.
3 | network_0/router_level3_1 | Updating lookahead routing information for flit 8.
3 | network_0/router_level3_1 | Completed switch allocation for VC 0 at input 7 (front: 9).
3 | network_0/router_level3_1 |   Scheduling switch connection from input 7.0 to output 14.0.
3 | network_0/router_level3_1 | Updating lookahead routing information for flit 9.
3 | network_0/router_level3_2 | Beginning switch allocation for VC 0 at input 1 (front: 10).
3 | network_0/router_level3_2 |   Requesting output 12.0 (non-spec, pri: 0).
3 | network_0/router_level3_2/sw_allocator | Input requests = [ 1 -> [ 12@0 ]  2 -> [ 9@0 ]  3 -> [ 15@0 ]  6 -> [ 8@0 ]  ], output requests = [ 8 -> [ 6@0 ]  9 -> [ 2@0 ]  12 -> [ 1@0 ]  15 -> [ 3@0 ]  ].
3 | network_0/router_level3_2/sw_allocator | Input grants = [ 1 -> 12  2 -> 9  3 -> 15  6 -> 8  ], output grants = [ 8 -> 6  9 -> 2  12 -> 1  15 -> 3  ].
3 | network_0/router_level3_2 | Assigning output 12.0 to VC 0 at input 1.0.
3 | network_0/router_level3_2 | Completed switch allocation for VC 0 at input 1 (front: 10).
3 | network_0/router_level3_2 |   Scheduling switch connection from input 1.0 to output 12.0.
3 | network_0/router_level3_2 | Updating lookahead routing information for flit 10.
4 | network_0/router_level3_0 | Beginning VC allocation for VC 0 at input 5 (front: 2).
4 | network_0/router_level3_0 |   Requesting VC 0 at output 15 (in_pri: 0, out_pri: 0).
4 | network_0/router_level3_0 |   VC 1 at output 15 is in use by VC 0 at input 3 (front flit: 2594).
4 | network_0/router_level3_0 |   Requesting VC 2 at output 15 (in_pri: 0, out_pri: 0).
4 | network_0/router_level3_0 |   Requesting VC 3 at output 15 (in_pri: 0, out_pri: 0).
4 | network_0/router_level3_0/vc_allocator | Input requests = [ 1 -> [ 52@0 53@0 54@0 55@0 ]  6 -> [ 41@0 42@0 43@0 ]  9 -> [ 41@0 42@0 43@0 ]  13 -> [ 44@0 45@0 46@0 47@0 ]  17 -> [ 49@0 50@0 51@0 ]  20 -> [ 60@0 62@0 63@0 ]  21 -> [ 57@0 58@0 59@0 ]  22 -> [ 52@0 53@0 54@0 55@0 ]  24 -> [ 57@0 58@0 59@0 ]  25 -> [ 32@0 33@0 34@0 35@0 ]  ], output requests = [ 32 -> [ 25@0 ]  33 -> [ 25@0 ]  34 -> [ 25@0 ]  35 -> [ 25@0 ]  41 -> [ 6@0 9@0 ]  42 -> [ 6@0 9@0 ]  43 -> [ 6@0 9@0 ]  44 -> [ 13@0 ]  45 -> [ 13@0 ]  46 -> [ 13@0 ]  47 -> [ 13@0 ]  49 -> [ 17@0 ]  50 -> [ 17@0 ]  51 -> [ 17@0 ]  52 -> [ 1@0 22@0 ]  53 -> [ 1@0 22@0 ]  54 -> [ 1@0 22@0 ]  55 -> [ 1@0 22@0 ]  57 -> [ 21@0 24@0 ]  58 -> [ 21@0 24@0 ]  59 -> [ 21@0 24@0 ]  60 -> [ 20@0 ]  62 -> [ 20@0 ]  63 -> [ 20@0 ]  ].
4 | network_0/router_level3_0/vc_allocator | Input grants = [ 1 -> 52  6 -> 41  13 -> 44  17 -> 49  20 -> 60  21 -> 57  25 -> 32  ], output grants = [ 32 -> 25  41 -> 6  44 -> 13  49 -> 17  52 -> 1  57 -> 21  60 -> 20  ].
4 | network_0/router_level3_0 | Assigning VC 0 at output 15 to VC 0 at input 5.
4 | network_0/router_level3_0 | Beginning crossbar traversal for flit 1 from input 4.0 to output 15.0.
4 | network_0/router_level3_0 | Completed VC allocation for VC 0 at input 5 (front: 2).
4 | network_0/router_level3_0 |   Acquiring assigned VC 0 at output 15.
4 | network_0/router_level3_0/buf_5/vc_0 | Changing state from vc_alloc to active.
4 | network_0/router_level3_0 | Completed crossbar traversal for flit 1 from input 4.0 to output 15.0.
4 | network_0/router_level3_0 | Buffering flit 1 at output 15.
4 | network_0/router_level3_1 | Beginning VC allocation for VC 0 at input 3 (front: 5).
4 | network_0/router_level3_1 |   Requesting VC 0 at output 9 (in_pri: 0, out_pri: 0).
4 | network_0/router_level3_1 |   VC 1 at output 9 is in use by VC 1 at input 1 (front flit: 2598).
4 | network_0/router_level3_1 |   Requesting VC 2 at output 9 (in_pri: 0, out_pri: 0).
4 | network_0/router_level3_1 |   Requesting VC 3 at output 9 (in_pri: 0, out_pri: 0).
4 | network_0/router_level3_1/vc_allocator | Input requests = [ 1 -> [ 36@0 38@0 39@0 ]  6 -> [ 36@0 38@0 39@0 ]  12 -> [ 36@0 38@0 39@0 ]  18 -> [ 36@0 38@0 39@0 ]  22 -> [ 32@0 33@0 34@0 35@0 ]  25 -> [ 53@0 54@0 55@0 ]  ], output requests = [ 32 -> [ 22@0 ]  33 -> [ 22@0 ]  34 -> [ 22@0 ]  35 -> [ 22@0 ]  36 -> [ 1@0 6@0 12@0 18@0 ]  38 -> [ 1@0 6@0 12@0 18@0 ]  39 -> [ 1@0 6@0 12@0 18@0 ]  53 -> [ 25@0 ]  54 -> [ 25@0 ]  55 -> [ 25@0 ]  ].
4 | network_0/router_level3_1/vc_allocator | Input grants = [ 6 -> 36  22 -> 32  25 -> 53  ], output grants = [ 32 -> 22  36 -> 6  53 -> 25  ].
4 | network_0/router_level3_1 | VC allocation failed for VC 0 at input 3.
4 | network_0/router_level3_1 | Beginning crossbar traversal for flit 3 from input 0.0 to output 15.0.
4 | network_0/router_level3_1 | Beginning crossbar traversal for flit 4 from input 1.0 to output 9.0.
4 | network_0/router_level3_1 | Beginning crossbar traversal for flit 6 from input 4.0 to output 12.0.
4 | network_0/router_level3_1 | Beginning crossbar traversal for flit 7 from input 5.0 to output 11.0.
4 | network_0/router_level3_1 | Beginning crossbar traversal for flit 8 from input 6.0 to output 10.0.
4 | network_0/router_level3_1 | Beginning crossbar traversal for flit 9 from input 7.0 to output 14.0.
4 | network_0/router_level3_1 | Completed VC allocation for VC 0 at input 3 (front: 5).
4 | network_0/router_level3_1 |   No output VC allocated.
4 | network_0/router_level3_1 | Completed crossbar traversal for flit 3 from input 0.0 to output 15.0.
4 | network_0/router_level3_1 | Buffering flit 3 at output 15.
4 | network_0/router_level3_1 | Completed crossbar traversal for flit 4 from input 1.0 to output 9.0.
4 | network_0/router_level3_1 | Buffering flit 4 at output 9.
4 | network_0/router_level3_1 | Completed crossbar traversal for flit 6 from input 4.0 to output 12.0.
4 | network_0/router_level3_1 | Buffering flit 6 at output 12.
4 | network_0/router_level3_1 | Completed crossbar traversal for flit 7 from input 5.0 to output 11.0.
4 | network_0/router_level3_1 | Buffering flit 7 at output 11.
4 | network_0/router_level3_1 | Completed crossbar traversal for flit 8 from input 6.0 to output 10.0.
4 | network_0/router_level3_1 | Buffering flit 8 at output 10.
4 | network_0/router_level3_1 | Completed crossbar traversal for flit 9 from input 7.0 to output 14.0.
4 | network_0/router_level3_1 | Buffering flit 9 at output 14.
4 | network_0/router_level3_2 | Beginning crossbar traversal for flit 10 from input 1.0 to output 12.0.
4 | network_0/router_level3_2 | Completed crossbar traversal for flit 10 from input 1.0 to output 12.0.
4 | network_0/router_level3_2 | Buffering flit 10 at output 12.
4 | network_0/router_level3_0 | Sending flit 1 to channel at output 15.
4 | network_0/router_level3_1 | Sending flit 4 to channel at output 9.
4 | network_0/router_level3_1 | Sending flit 8 to channel at output 10.
4 | network_0/router_level3_1 | Sending flit 7 to channel at output 11.
4 | network_0/router_level3_1 | Sending flit 6 to channel at output 12.
4 | network_0/router_level3_1 | Sending flit 9 to channel at output 14.
4 | network_0/router_level3_1 | Sending flit 3 to channel at output 15.
4 | network_0/router_level3_2 | Sending flit 10 to channel at output 12.
5 | network_0/network_0_fchan_20487 | Beginning channel traversal for flit 1 with delay 1.
5 | network_0/network_0_fchan_20489 | Beginning channel traversal for flit 4 with delay 1.
5 | network_0/network_0_fchan_20490 | Beginning channel traversal for flit 8 with delay 1.
5 | network_0/network_0_fchan_20491 | Beginning channel traversal for flit 7 with delay 1.
5 | network_0/network_0_fchan_20492 | Beginning channel traversal for flit 6 with delay 1.
5 | network_0/network_0_fchan_20494 | Beginning channel traversal for flit 9 with delay 1.
5 | network_0/network_0_fchan_20495 | Beginning channel traversal for flit 3 with delay 1.
5 | network_0/network_0_fchan_20500 | Beginning channel traversal for flit 10 with delay 1.
5 | network_0/router_level3_0 | Beginning switch allocation for VC 0 at input 5 (front: 2).
5 | network_0/router_level3_0 |   Requesting output 15.0 (non-spec, pri: 0).
5 | network_0/router_level3_0/sw_allocator | Input requests = [ 0 -> [ 13@0 ]  1 -> [ 10@0 ]  3 -> [ 11@0 ]  4 -> [ 12@0 ]  5 -> [ 14@0 15@0 ]  6 -> [ 8@0 ]  ], output requests = [ 8 -> [ 6@0 ]  10 -> [ 1@0 ]  11 -> [ 3@0 ]  12 -> [ 4@0 ]  13 -> [ 0@0 ]  14 -> [ 5@0 ]  15 -> [ 5@0 ]  ].
5 | network_0/router_level3_0/sw_allocator | Input grants = [ 0 -> 13  1 -> 10  3 -> 11  4 -> 12  5 -> 14  6 -> 8  ], output grants = [ 8 -> 6  10 -> 1  11 -> 3  12 -> 4  13 -> 0  14 -> 5  ].
5 | network_0/router_level3_0 | Switch allocation failed for VC 0 at input 5: Granted to VC 1.
5 | network_0/router_level3_0 | Completed switch allocation for VC 0 at input 5 (front: 2).
5 | network_0/router_level3_0 |   No output port allocated.
5 | network_0/router_level3_1 | Beginning VC allocation for VC 0 at input 3 (front: 5).
5 | network_0/router_level3_1 |   VC 0 at output 9 is in use by VC 2 at input 1 (front flit: 5292).
5 | network_0/router_level3_1 |   Requesting VC 1 at output 9 (in_pri: 0, out_pri: 0).
5 | network_0/router_level3_1 |   Requesting VC 2 at output 9 (in_pri: 0, out_pri: 0).
5 | network_0/router_level3_1 |   Requesting VC 3 at output 9 (in_pri: 0, out_pri: 0).
5 | network_0/router_level3_1/vc_allocator | Input requests = [ 1 -> [ 37@0 38@0 39@0 ]  2 -> [ 44@0 45@0 46@0 47@0 ]  7 -> [ 48@0 49@0 50@0 51@0 ]  8 -> [ 56@0 57@0 58@0 59@0 ]  12 -> [ 37@0 38@0 39@0 ]  18 -> [ 37@0 38@0 39@0 ]  19 -> [ 37@0 38@0 39@0 ]  23 -> [ 48@0 49@0 50@0 51@0 ]  26 -> [ 56@0 57@0 58@0 59@0 ]  29 -> [ 37@0 38@0 39@0 ]  ], output requests = [ 37 -> [ 1@0 12@0 18@0 19@0 29@0 ]  38 -> [ 1@0 12@0 18@0 19@0 29@0 ]  39 -> [ 1@0 12@0 18@0 19@0 29@0 ]  44 -> [ 2@0 ]  45 -> [ 2@0 ]  46 -> [ 2@0 ]  47 -> [ 2@0 ]  48 -> [ 7@0 23@0 ]  49 -> [ 7@0 23@0 ]  50 -> [ 7@0 23@0 ]  51 -> [ 7@0 23@0 ]  56 -> [ 8@0 26@0 ]  57 -> [ 8@0 26@0 ]  58 -> [ 8@0 26@0 ]  59 -> [ 8@0 26@0 ]  ].
5 | network_0/router_level3_1/vc_allocator | Input grants = [ 2 -> 44  8 -> 56  12 -> 37  23 -> 48  ], output grants = [ 37 -> 12  44 -> 2  48 -> 23  56 -> 8  ].
5 | network_0/router_level3_1 | Assigning VC 1 at output 9 to VC 0 at input 3.
5 | network_0/router_level3_1 | Completed VC allocation for VC 0 at input 3 (front: 5).
5 | network_0/router_level3_1 |   Acquiring assigned VC 1 at output 9.
5 | network_0/router_level3_1/buf_3/vc_0 | Changing state from vc_alloc to active.
5 | network_0/network_0_fchan_20487 | Completed channel traversal for flit 1.
5 | network_0/network_0_fchan_20489 | Completed channel traversal for flit 4.
5 | network_0/network_0_fchan_20490 | Completed channel traversal for flit 8.
5 | network_0/network_0_fchan_20491 | Completed channel traversal for flit 7.
5 | network_0/network_0_fchan_20492 | Completed channel traversal for flit 6.
5 | network_0/network_0_fchan_20494 | Completed channel traversal for flit 9.
5 | network_0/network_0_fchan_20495 | Completed channel traversal for flit 3.
5 | network_0/network_0_fchan_20500 | Completed channel traversal for flit 10.
6 | network_0/router_level2_1 | Received flit 4 from channel at input 1.
6 | network_0/router_level2_2 | Received flit 8 from channel at input 1.
6 | network_0/router_level2_3 | Received flit 7 from channel at input 1.
6 | network_0/router_level2_4 | Received flit 6 from channel at input 1.
6 | network_0/router_level2_4 | Received flit 10 from channel at input 2.
6 | network_0/router_level2_6 | Received flit 9 from channel at input 1.
6 | network_0/router_level2_7 | Received flit 1 from channel at input 0.
6 | network_0/router_level2_7 | Received flit 3 from channel at input 1.
6 | network_0/router_level2_1 | Adding flit 4 to VC 0 at input 1 (state: idle, empty).
6 | network_0/router_level2_1 | Using precomputed lookahead routing information for VC 0 at input 1 (front: 4).
6 | network_0/router_level2_1/buf_1/vc_0 | Changing state from idle to vc_alloc.
6 | network_0/router_level2_1 | Beginning VC allocation for VC 0 at input 1 (front: 4).
6 | network_0/router_level2_1 |   Requesting VC 0 at output 14 (in_pri: 0, out_pri: 0).
6 | network_0/router_level2_1 |   Requesting VC 1 at output 14 (in_pri: 0, out_pri: 0).
6 | network_0/router_level2_1 |   Requesting VC 2 at output 14 (in_pri: 0, out_pri: 0).
6 | network_0/router_level2_1 |   Requesting VC 3 at output 14 (in_pri: 0, out_pri: 0).
6 | network_0/router_level2_1/vc_allocator | Input requests = [ 0 -> [ 52@0 53@0 54@0 55@0 ]  4 -> [ 56@0 57@0 58@0 59@0 ]  8 -> [ 52@0 53@0 54@0 55@0 ]  20 -> [ 56@0 57@0 58@0 59@0 ]  24 -> [ 40@0 41@0 42@0 43@0 ]  28 -> [ 52@0 53@0 54@0 55@0 ]  ], output requests = [ 40 -> [ 24@0 ]  41 -> [ 24@0 ]  42 -> [ 24@0 ]  43 -> [ 24@0 ]  52 -> [ 0@0 8@0 28@0 ]  53 -> [ 0@0 8@0 28@0 ]  54 -> [ 0@0 8@0 28@0 ]  55 -> [ 0@0 8@0 28@0 ]  56 -> [ 4@0 20@0 ]  57 -> [ 4@0 20@0 ]  58 -> [ 4@0 20@0 ]  59 -> [ 4@0 20@0 ]  ].
6 | network_0/router_level2_1/vc_allocator | Input grants = [ 0 -> 52  4 -> 56  24 -> 40  ], output grants = [ 40 -> 24  52 -> 0  56 -> 4  ].
6 | network_0/router_level2_1 | Assigning VC 0 at output 14 to VC 0 at input 1.
6 | network_0/router_level2_1 | Completed VC allocation for VC 0 at input 1 (front: 4).
6 | network_0/router_level2_1 |   Acquiring assigned VC 0 at output 14.
6 | network_0/router_level2_1/buf_1/vc_0 | Changing state from vc_alloc to active.
6 | network_0/router_level2_2 | Adding flit 8 to VC 0 at input 1 (state: idle, empty).
6 | network_0/router_level2_2 | Using precomputed lookahead routing information for VC 0 at input 1 (front: 8).
6 | network_0/router_level2_2/buf_1/vc_0 | Changing state from idle to vc_alloc.
6 | network_0/router_level2_2 | Beginning VC allocation for VC 0 at input 1 (front: 8).
6 | network_0/router_level2_2 |   Requesting VC 0 at output 10 (in_pri: 0, out_pri: 0).
6 | network_0/router_level2_2 |   Requesting VC 1 at output 10 (in_pri: 0, out_pri: 0).
6 | network_0/router_level2_2 |   Requesting VC 2 at output 10 (in_pri: 0, out_pri: 0).
6 | network_0/router_level2_2 |   Requesting VC 3 at output 10 (in_pri: 0, out_pri: 0).
6 | network_0/router_level2_2/vc_allocator | Input requests = [ 4 -> [ 40@0 41@0 42@0 43@0 ]  28 -> [ 52@0 53@0 54@0 55@0 ]  ], output requests = [ 40 -> [ 4@0 ]  41 -> [ 4@0 ]  42 -> [ 4@0 ]  43 -> [ 4@0 ]  52 -> [ 28@0 ]  53 -> [ 28@0 ]  54 -> [ 28@0 ]  55 -> [ 28@0 ]  ].
6 | network_0/router_level2_2/vc_allocator | Input grants = [ 4 -> 40  28 -> 52  ], output grants = [ 40 -> 4  52 -> 28  ].
6 | network_0/router_level2_2 | Assigning VC 0 at output 10 to VC 0 at input 1.
6 | network_0/router_level2_2 | Completed VC allocation for VC 0 at input 1 (front: 8).
6 | network_0/router_level2_2 |   Acquiring assigned VC 0 at output 10.
6 | network_0/router_level2_2/buf_1/vc_0 | Changing state from vc_alloc to active.
6 | network_0/router_level2_3 | Adding flit 7 to VC 0 at input 1 (state: idle, empty).
6 | network_0/router_level2_3 | Using precomputed lookahead routing information for VC 0 at input 1 (front: 7).
6 | network_0/router_level2_3/buf_1/vc_0 | Changing state from idle to vc_alloc.
6 | network_0/router_level2_3 | Beginning VC allocation for VC 0 at input 1 (front: 7).
6 | network_0/router_level2_3 |   Requesting VC 0 at output 11 (in_pri: 0, out_pri: 0).
6 | network_0/router_level2_3 |   Requesting VC 1 at output 11 (in_pri: 0, out_pri: 0).
6 | network_0/router_level2_3 |   Requesting VC 2 at output 11 (in_pri: 0, out_pri: 0).
6 | network_0/router_level2_3 |   Requesting VC 3 at output 11 (in_pri: 0, out_pri: 0).
6 | network_0/router_level2_3/vc_allocator | Input requests = [ 4 -> [ 44@0 45@0 46@0 47@0 ]  20 -> [ 48@0 49@0 50@0 51@0 ]  24 -> [ 40@0 41@0 42@0 43@0 ]  ], output requests = [ 40 -> [ 24@0 ]  41 -> [ 24@0 ]  42 -> [ 24@0 ]  43 -> [ 24@0 ]  44 -> [ 4@0 ]  45 -> [ 4@0 ]  46 -> [ 4@0 ]  47 -> [ 4@0 ]  48 -> [ 20@0 ]  49 -> [ 20@0 ]  50 -> [ 20@0 ]  51 -> [ 20@0 ]  ].
6 | network_0/router_level2_3/vc_allocator | Input grants = [ 4 -> 44  20 -> 48  24 -> 40  ], output grants = [ 40 -> 24  44 -> 4  48 -> 20  ].
6 | network_0/router_level2_3 | Assigning VC 0 at output 11 to VC 0 at input 1.
6 | network_0/router_level2_3 | Completed VC allocation for VC 0 at input 1 (front: 7).
6 | network_0/router_level2_3 |   Acquiring assigned VC 0 at output 11.
6 | network_0/router_level2_3/buf_1/vc_0 | Changing state from vc_alloc to active.
6 | network_0/router_level2_4 | Adding flit 6 to VC 0 at input 1 (state: idle, empty).
6 | network_0/router_level2_4 | Using precomputed lookahead routing information for VC 0 at input 1 (front: 6).
6 | network_0/router_level2_4/buf_1/vc_0 | Changing state from idle to vc_alloc.
6 | network_0/router_level2_4 | Adding flit 10 to VC 0 at input 2 (state: idle, empty).
6 | network_0/router_level2_4 | Using precomputed lookahead routing information for VC 0 at input 2 (front: 10).
6 | network_0/router_level2_4/buf_2/vc_0 | Changing state from idle to vc_alloc.
6 | network_0/router_level2_4 | Beginning VC allocation for VC 0 at input 1 (front: 6).
6 | network_0/router_level2_4 |   Requesting VC 0 at output 8 (in_pri: 0, out_pri: 0).
6 | network_0/router_level2_4 |   Requesting VC 1 at output 8 (in_pri: 0, out_pri: 0).
6 | network_0/router_level2_4 |   Requesting VC 2 at output 8 (in_pri: 0, out_pri: 0).
6 | network_0/router_level2_4 |   Requesting VC 3 at output 8 (in_pri: 0, out_pri: 0).
6 | network_0/router_level2_4 | Beginning VC allocation for VC 0 at input 2 (front: 10).
6 | network_0/router_level2_4 |   Requesting VC 0 at output 9 (in_pri: 0, out_pri: 0).
6 | network_0/router_level2_4 |   Requesting VC 1 at output 9 (in_pri: 0, out_pri: 0).
6 | network_0/router_level2_4 |   Requesting VC 2 at output 9 (in_pri: 0, out_pri: 0).
6 | network_0/router_level2_4 |   Requesting VC 3 at output 9 (in_pri: 0, out_pri: 0).
6 | network_0/router_level2_4/vc_allocator | Input requests = [ 4 -> [ 32@0 33@0 34@0 35@0 ]  8 -> [ 36@0 37@0 38@0 39@0 ]  12 -> [ 44@0 45@0 46@0 47@0 ]  16 -> [ 60@0 61@0 62@0 63@0 ]  24 -> [ 36@0 37@0 38@0 39@0 ]  28 -> [ 36@0 37@0 38@0 39@0 ]  ], output requests = [ 32 -> [ 4@0 ]  33 -> [ 4@0 ]  34 -> [ 4@0 ]  35 -> [ 4@0 ]  36 -> [ 8@0 24@0 28@0 ]  37 -> [ 8@0 24@0 28@0 ]  38 -> [ 8@0 24@0 28@0 ]  39 -> [ 8@0 24@0 28@0 ]  44 -> [ 12@0 ]  45 -> [ 12@0 ]  46 -> [ 12@0 ]  47 -> [ 12@0 ]  60 -> [ 16@0 ]  61 -> [ 16@0 ]  62 -> [ 16@0 ]  63 -> [ 16@0 ]  ].
6 | network_0/router_level2_4/vc_allocator | Input grants = [ 4 -> 32  8 -> 36  12 -> 44  16 -> 60  ], output grants = [ 32 -> 4  36 -> 8  44 -> 12  60 -> 16  ].
6 | network_0/router_level2_4 | Assigning VC 0 at output 8 to VC 0 at input 1.
6 | network_0/router_level2_4 | Assigning VC 0 at output 9 to VC 0 at input 2.
6 | network_0/router_level2_4 | Completed VC allocation for VC 0 at input 1 (front: 6).
6 | network_0/router_level2_4 |   Acquiring assigned VC 0 at output 8.
6 | network_0/router_level2_4/buf_1/vc_0 | Changing state from vc_alloc to active.
6 | network_0/router_level2_4 | Completed VC allocation for VC 0 at input 2 (front: 10).
6 | network_0/router_level2_4 |   Acquiring assigned VC 0 at output 9.
6 | network_0/router_level2_4/buf_2/vc_0 | Changing state from vc_alloc to active.
6 | network_0/router_level2_6 | Adding flit 9 to VC 0 at input 1 (state: idle, empty).
6 | network_0/router_level2_6 | Using precomputed lookahead routing information for VC 0 at input 1 (front: 9).
6 | network_0/router_level2_6/buf_1/vc_0 | Changing state from idle to vc_alloc.
6 | network_0/router_level2_6 | Beginning VC allocation for VC 0 at input 1 (front: 9).
6 | network_0/router_level2_6 |   Requesting VC 0 at output 9 (in_pri: 0, out_pri: 0).
6 | network_0/router_level2_6 |   Requesting VC 1 at output 9 (in_pri: 0, out_pri: 0).
6 | network_0/router_level2_6 |   Requesting VC 2 at output 9 (in_pri: 0, out_pri: 0).
6 | network_0/router_level2_6 |   Requesting VC 3 at output 9 (in_pri: 0, out_pri: 0).
6 | network_0/router_level2_6/vc_allocator | Input requests = [ 4 -> [ 36@0 37@0 38@0 39@0 ]  12 -> [ 60@0 61@0 62@0 63@0 ]  16 -> [ 44@0 45@0 46@0 47@0 ]  ], output requests = [ 36 -> [ 4@0 ]  37 -> [ 4@0 ]  38 -> [ 4@0 ]  39 -> [ 4@0 ]  44 -> [ 16@0 ]  45 -> [ 16@0 ]  46 -> [ 16@0 ]  47 -> [ 16@0 ]  60 -> [ 12@0 ]  61 -> [ 12@0 ]  62 -> [ 12@0 ]  63 -> [ 12@0 ]  ].
6 | network_0/router_level2_6/vc_allocator | Input grants = [ 4 -> 36  12 -> 60  16 -> 44  ], output grants = [ 36 -> 4  44 -> 16  60 -> 12  ].
6 | network_0/router_level2_6 | Assigning VC 0 at output 9 to VC 0 at input 1.
6 | network_0/router_level2_6 | Completed VC allocation for VC 0 at input 1 (front: 9).
6 | network_0/router_level2_6 |   Acquiring assigned VC 0 at output 9.
6 | network_0/router_level2_6/buf_1/vc_0 | Changing state from vc_alloc to active.
6 | network_0/router_level2_7 | Adding flit 1 to VC 0 at input 0 (state: idle, empty).
6 | network_0/router_level2_7 | Using precomputed lookahead routing information for VC 0 at input 0 (front: 1).
6 | network_0/router_level2_7/buf_0/vc_0 | Changing state from idle to vc_alloc.
6 | network_0/router_level2_7 | Adding flit 3 to VC 0 at input 1 (state: idle, empty).
6 | network_0/router_level2_7 | Using precomputed lookahead routing information for VC 0 at input 1 (front: 3).
6 | network_0/router_level2_7/buf_1/vc_0 | Changing state from idle to vc_alloc.
6 | network_0/router_level2_7 | Beginning VC allocation for VC 0 at input 0 (front: 1).
6 | network_0/router_level2_7 |   Requesting VC 0 at output 14 (in_pri: 0, out_pri: 0).
6 | network_0/router_level2_7 |   Requesting VC 1 at output 14 (in_pri: 0, out_pri: 0).
6 | network_0/router_level2_7 |   Requesting VC 2 at output 14 (in_pri: 0, out_pri: 0).
6 | network_0/router_level2_7 |   Requesting VC 3 at output 14 (in_pri: 0, out_pri: 0).
6 | network_0/router_level2_7 | Beginning VC allocation for VC 0 at input 1 (front: 3).
6 | network_0/router_level2_7 |   Requesting VC 0 at output 12 (in_pri: 0, out_pri: 0).
6 | network_0/router_level2_7 |   Requesting VC 1 at output 12 (in_pri: 0, out_pri: 0).
6 | network_0/router_level2_7 |   Requesting VC 2 at output 12 (in_pri: 0, out_pri: 0).
6 | network_0/router_level2_7 |   Requesting VC 3 at output 12 (in_pri: 0, out_pri: 0).
6 | network_0/router_level2_7/vc_allocator | Input requests = [ 0 -> [ 56@0 57@0 58@0 59@0 ]  4 -> [ 48@0 49@0 50@0 51@0 ]  8 -> [ 48@0 49@0 50@0 51@0 ]  12 -> [ 52@0 53@0 54@0 55@0 ]  20 -> [ 36@0 37@0 38@0 39@0 ]  ], output requests = [ 36 -> [ 20@0 ]  37 -> [ 20@0 ]  38 -> [ 20@0 ]  39 -> [ 20@0 ]  48 -> [ 4@0 8@0 ]  49 -> [ 4@0 8@0 ]  50 -> [ 4@0 8@0 ]  51 -> [ 4@0 8@0 ]  52 -> [ 12@0 ]  53 -> [ 12@0 ]  54 -> [ 12@0 ]  55 -> [ 12@0 ]  56 -> [ 0@0 ]  57 -> [ 0@0 ]  58 -> [ 0@0 ]  59 -> [ 0@0 ]  ].
6 | network_0/router_level2_7/vc_allocator | Input grants = [ 0 -> 56  4 -> 48  12 -> 52  20 -> 36  ], output grants = [ 36 -> 20  48 -> 4  52 -> 12  56 -> 0  ].
6 | network_0/router_level2_7 | Assigning VC 0 at output 14 to VC 0 at input 0.
6 | network_0/router_level2_7 | Assigning VC 0 at output 12 to VC 0 at input 1.
6 | network_0/router_level2_7 | Completed VC allocation for VC 0 at input 0 (front: 1).
6 | network_0/router_level2_7 |   Acquiring assigned VC 0 at output 14.
6 | network_0/router_level2_7/buf_0/vc_0 | Changing state from vc_alloc to active.
6 | network_0/router_level2_7 | Completed VC allocation for VC 0 at input 1 (front: 3).
6 | network_0/router_level2_7 |   Acquiring assigned VC 0 at output 12.
6 | network_0/router_level2_7/buf_1/vc_0 | Changing state from vc_alloc to active.
6 | network_0/router_level3_0 | Beginning switch allocation for VC 0 at input 5 (front: 2).
6 | network_0/router_level3_0 |   Requesting output 15.0 (non-spec, pri: 0).
6 | network_0/router_level3_0/sw_allocator | Input requests = [ 2 -> [ 10@0 ]  3 -> [ 15@0 ]  4 -> [ 13@0 ]  5 -> [ 12@0 15@0 ]  6 -> [ 14@0 ]  ], output requests = [ 10 -> [ 2@0 ]  12 -> [ 5@0 ]  13 -> [ 4@0 ]  14 -> [ 6@0 ]  15 -> [ 3@0 5@0 ]  ].
6 | network_0/router_level3_0/sw_allocator | Input grants = [ 2 -> 10  4 -> 13  5 -> 15  6 -> 14  ], output grants = [ 10 -> 2  13 -> 4  14 -> 6  15 -> 5  ].
6 | network_0/router_level3_0 | Assigning output 15.0 to VC 0 at input 5.0.
6 | network_0/router_level3_0 | Completed switch allocation for VC 0 at input 5 (front: 2).
6 | network_0/router_level3_0 |   Scheduling switch connection from input 5.0 to output 15.0.
6 | network_0/router_level3_0 | Updating lookahead routing information for flit 2.
6 | network_0/router_level3_1 | Beginning switch allocation for VC 0 at input 3 (front: 5).
6 | network_0/router_level3_1 |   Requesting output 9.0 (non-spec, pri: 0).
6 | network_0/router_level3_1/sw_allocator | Input requests = [ 0 -> [ 11@0 ]  2 -> [ 14@0 ]  3 -> [ 9@0 ]  5 -> [ 12@0 ]  ], output requests = [ 9 -> [ 3@0 ]  11 -> [ 0@0 ]  12 -> [ 5@0 ]  14 -> [ 2@0 ]  ].
6 | network_0/router_level3_1/sw_allocator | Input grants = [ 0 -> 11  2 -> 14  3 -> 9  5 -> 12  ], output grants = [ 9 -> 3  11 -> 0  12 -> 5  14 -> 2  ].
6 | network_0/router_level3_1 | Assigning output 9.0 to VC 0 at input 3.0.
6 | network_0/router_level3_1 | Completed switch allocation for VC 0 at input 3 (front: 5).
6 | network_0/router_level3_1 |   Scheduling switch connection from input 3.0 to output 9.0.
6 | network_0/router_level3_1 | Updating lookahead routing information for flit 5.
7 | network_0/router_level2_1 | Beginning switch allocation for VC 0 at input 1 (front: 4).
7 | network_0/router_level2_1 |   Requesting output 14.0 (non-spec, pri: 0).
7 | network_0/router_level2_1/sw_allocator | Input requests = [ 0 -> [ 13@0 ]  1 -> [ 14@0 ]  6 -> [ 10@0 ]  ], output requests = [ 10 -> [ 6@0 ]  13 -> [ 0@0 ]  14 -> [ 1@0 ]  ].
7 | network_0/router_level2_1/sw_allocator | Input grants = [ 0 -> 13  1 -> 14  6 -> 10  ], output grants = [ 10 -> 6  13 -> 0  14 -> 1  ].
7 | network_0/router_level2_1 | Assigning output 14.0 to VC 0 at input 1.0.
7 | network_0/router_level2_1 | Completed switch allocation for VC 0 at input 1 (front: 4).
7 | network_0/router_level2_1 |   Scheduling switch connection from input 1.0 to output 14.0.
7 | network_0/router_level2_1 | Updating lookahead routing information for flit 4.
7 | network_0/router_level2_2 | Beginning switch allocation for VC 0 at input 1 (front: 8).
7 | network_0/router_level2_2 |   Requesting output 10.0 (non-spec, pri: 0).
7 | network_0/router_level2_2/sw_allocator | Input requests = [ 1 -> [ 10@0 ]  7 -> [ 13@0 ]  ], output requests = [ 10 -> [ 1@0 ]  13 -> [ 7@0 ]  ].
7 | network_0/router_level2_2/sw_allocator | Input grants = [ 1 -> 10  7 -> 13  ], output grants = [ 10 -> 1  13 -> 7  ].
7 | network_0/router_level2_2 | Assigning output 10.0 to VC 0 at input 1.0.
7 | network_0/router_level2_2 | Completed switch allocation for VC 0 at input 1 (front: 8).
7 | network_0/router_level2_2 |   Scheduling switch connection from input 1.0 to output 10.0.
7 | network_0/router_level2_2 | Updating lookahead routing information for flit 8.
7 | network_0/router_level2_3 | Beginning switch allocation for VC 0 at input 1 (front: 7).
7 | network_0/router_level2_3 |   Requesting output 11.0 (non-spec, pri: 0).
7 | network_0/router_level2_3/sw_allocator | Input requests = [ 1 -> [ 11@0 ]  5 -> [ 12@0 ]  6 -> [ 10@0 ]  ], output requests = [ 10 -> [ 6@0 ]  11 -> [ 1@0 ]  12 -> [ 5@0 ]  ].
7 | network_0/router_level2_3/sw_allocator | Input grants = [ 1 -> 11  5 -> 12  6 -> 10  ], output grants = [ 10 -> 6  11 -> 1  12 -> 5  ].
7 | network_0/router_level2_3 | Assigning output 11.0 to VC 0 at input 1.0.
7 | network_0/router_level2_3 | Completed switch allocation for VC 0 at input 1 (front: 7).
7 | network_0/router_level2_3 |   Scheduling switch connection from input 1.0 to output 11.0.
7 | network_0/router_level2_3 | Updating lookahead routing information for flit 7.
7 | network_0/router_level2_4 | Beginning switch allocation for VC 0 at input 1 (front: 6).
7 | network_0/router_level2_4 |   Requesting output 8.0 (non-spec, pri: 0).
7 | network_0/router_level2_4 | Beginning switch allocation for VC 0 at input 2 (front: 10).
7 | network_0/router_level2_4 |   Requesting output 9.0 (non-spec, pri: 0).
7 | network_0/router_level2_4/sw_allocator | Input requests = [ 1 -> [ 8@0 ]  2 -> [ 9@0 ]  3 -> [ 11@0 ]  4 -> [ 15@0 ]  ], output requests = [ 8 -> [ 1@0 ]  9 -> [ 2@0 ]  11 -> [ 3@0 ]  15 -> [ 4@0 ]  ].
7 | network_0/router_level2_4/sw_allocator | Input grants = [ 1 -> 8  2 -> 9  3 -> 11  4 -> 15  ], output grants = [ 8 -> 1  9 -> 2  11 -> 3  15 -> 4  ].
7 | network_0/router_level2_4 | Assigning output 8.0 to VC 0 at input 1.0.
7 | network_0/router_level2_4 | Assigning output 9.0 to VC 0 at input 2.0.
7 | network_0/router_level2_4 | Completed switch allocation for VC 0 at input 1 (front: 6).
7 | network_0/router_level2_4 |   Scheduling switch connection from input 1.0 to output 8.0.
7 | network_0/router_level2_4 | Updating lookahead routing information for flit 6.
7 | network_0/router_level2_4 | Completed switch allocation for VC 0 at input 2 (front: 10).
7 | network_0/router_level2_4 |   Scheduling switch connection from input 2.0 to output 9.0.
7 | network_0/router_level2_4 | Updating lookahead routing information for flit 10.
7 | network_0/router_level2_6 | Beginning switch allocation for VC 0 at input 1 (front: 9).
7 | network_0/router_level2_6 |   Requesting output 9.0 (non-spec, pri: 0).
7 | network_0/router_level2_6/sw_allocator | Input requests = [ 1 -> [ 9@0 ]  3 -> [ 15@0 ]  4 -> [ 11@0 ]  ], output requests = [ 9 -> [ 1@0 ]  11 -> [ 4@0 ]  15 -> [ 3@0 ]  ].
7 | network_0/router_level2_6/sw_allocator | Input grants = [ 1 -> 9  3 -> 15  4 -> 11  ], output grants = [ 9 -> 1  11 -> 4  15 -> 3  ].
7 | network_0/router_level2_6 | Assigning output 9.0 to VC 0 at input 1.0.
7 | network_0/router_level2_6 | Completed switch allocation for VC 0 at input 1 (front: 9).
7 | network_0/router_level2_6 |   Scheduling switch connection from input 1.0 to output 9.0.
7 | network_0/router_level2_6 | Updating lookahead routing information for flit 9.
7 | network_0/router_level2_7 | Beginning switch allocation for VC 0 at input 0 (front: 1).
7 | network_0/router_level2_7 |   Requesting output 14.0 (non-spec, pri: 0).
7 | network_0/router_level2_7 | Beginning switch allocation for VC 0 at input 1 (front: 3).
7 | network_0/router_level2_7 |   Requesting output 12.0 (non-spec, pri: 0).
7 | network_0/router_level2_7/sw_allocator | Input requests = [ 0 -> [ 14@0 ]  1 -> [ 12@0 ]  3 -> [ 13@0 ]  5 -> [ 9@0 ]  ], output requests = [ 9 -> [ 5@0 ]  12 -> [ 1@0 ]  13 -> [ 3@0 ]  14 -> [ 0@0 ]  ].
7 | network_0/router_level2_7/sw_allocator | Input grants = [ 0 -> 14  1 -> 12  3 -> 13  5 -> 9  ], output grants = [ 9 -> 5  12 -> 1  13 -> 3  14 -> 0  ].
7 | network_0/router_level2_7 | Assigning output 14.0 to VC 0 at input 0.0.
7 | network_0/router_level2_7 | Assigning output 12.0 to VC 0 at input 1.0.
7 | network_0/router_level2_7 | Completed switch allocation for VC 0 at input 0 (front: 1).
7 | network_0/router_level2_7 |   Scheduling switch connection from input 0.0 to output 14.0.
7 | network_0/router_level2_7 | Updating lookahead routing information for flit 1.
7 | network_0/router_level2_7 | Completed switch allocation for VC 0 at input 1 (front: 3).
7 | network_0/router_level2_7 |   Scheduling switch connection from input 1.0 to output 12.0.
7 | network_0/router_level2_7 | Updating lookahead routing information for flit 3.
7 | network_0/router_level3_0 | Beginning crossbar traversal for flit 2 from input 5.0 to output 15.0.
7 | network_0/router_level3_0 | Completed crossbar traversal for flit 2 from input 5.0 to output 15.0.
7 | network_0/router_level3_0 | Buffering flit 2 at output 15.
7 | network_0/router_level3_1 | Beginning crossbar traversal for flit 5 from input 3.0 to output 9.0.
7 | network_0/router_level3_1 | Completed crossbar traversal for flit 5 from input 3.0 to output 9.0.
7 | network_0/router_level3_1 | Buffering flit 5 at output 9.
7 | network_0/router_level3_0 | Sending flit 2 to channel at output 15.
7 | network_0/router_level3_1 | Sending flit 5 to channel at output 9.
8 | network_0/network_0_fchan_20487 | Beginning channel traversal for flit 2 with delay 1.
8 | network_0/network_0_fchan_20489 | Beginning channel traversal for flit 5 with delay 1.
8 | network_0/router_level2_1 | Beginning crossbar traversal for flit 4 from input 1.0 to output 14.0.
8 | network_0/router_level2_1 | Completed crossbar traversal for flit 4 from input 1.0 to output 14.0.
8 | network_0/router_level2_1 | Buffering flit 4 at output 14.
8 | network_0/router_level2_2 | Beginning crossbar traversal for flit 8 from input 1.0 to output 10.0.
8 | network_0/router_level2_2 | Completed crossbar traversal for flit 8 from input 1.0 to output 10.0.
8 | network_0/router_level2_2 | Buffering flit 8 at output 10.
8 | network_0/router_level2_3 | Beginning crossbar traversal for flit 7 from input 1.0 to output 11.0.
8 | network_0/router_level2_3 | Completed crossbar traversal for flit 7 from input 1.0 to output 11.0.
8 | network_0/router_level2_3 | Buffering flit 7 at output 11.
8 | network_0/router_level2_4 | Beginning crossbar traversal for flit 6 from input 1.0 to output 8.0.
8 | network_0/router_level2_4 | Beginning crossbar traversal for flit 10 from input 2.0 to output 9.0.
8 | network_0/router_level2_4 | Completed crossbar traversal for flit 6 from input 1.0 to output 8.0.
8 | network_0/router_level2_4 | Buffering flit 6 at output 8.
8 | network_0/router_level2_4 | Completed crossbar traversal for flit 10 from input 2.0 to output 9.0.
8 | network_0/router_level2_4 | Buffering flit 10 at output 9.
8 | network_0/router_level2_6 | Beginning crossbar traversal for flit 9 from input 1.0 to output 9.0.
8 | network_0/router_level2_6 | Completed crossbar traversal for flit 9 from input 1.0 to output 9.0.
8 | network_0/router_level2_6 | Buffering flit 9 at output 9.
8 | network_0/router_level2_7 | Beginning crossbar traversal for flit 1 from input 0.0 to output 14.0.
8 | network_0/router_level2_7 | Beginning crossbar traversal for flit 3 from input 1.0 to output 12.0.
8 | network_0/router_level2_7 | Completed crossbar traversal for flit 1 from input 0.0 to output 14.0.
8 | network_0/router_level2_7 | Buffering flit 1 at output 14.
8 | network_0/router_level2_7 | Completed crossbar traversal for flit 3 from input 1.0 to output 12.0.
8 | network_0/router_level2_7 | Buffering flit 3 at output 12.
8 | network_0/network_0_fchan_20487 | Completed channel traversal for flit 2.
8 | network_0/network_0_fchan_20489 | Completed channel traversal for flit 5.
8 | network_0/router_level2_1 | Sending flit 4 to channel at output 14.
8 | network_0/router_level2_2 | Sending flit 8 to channel at output 10.
8 | network_0/router_level2_3 | Sending flit 7 to channel at output 11.
8 | network_0/router_level2_4 | Sending flit 6 to channel at output 8.
8 | network_0/router_level2_4 | Sending flit 10 to channel at output 9.
8 | network_0/router_level2_6 | Sending flit 9 to channel at output 9.
8 | network_0/router_level2_7 | Sending flit 3 to channel at output 12.
8 | network_0/router_level2_7 | Sending flit 1 to channel at output 14.
9 | network_0/network_0_fchan_12302 | Beginning channel traversal for flit 4 with delay 1.
9 | network_0/network_0_fchan_12306 | Beginning channel traversal for flit 8 with delay 1.
9 | network_0/network_0_fchan_12315 | Beginning channel traversal for flit 7 with delay 1.
9 | network_0/network_0_fchan_12320 | Beginning channel traversal for flit 6 with delay 1.
9 | network_0/network_0_fchan_12321 | Beginning channel traversal for flit 10 with delay 1.
9 | network_0/network_0_fchan_12337 | Beginning channel traversal for flit 9 with delay 1.
9 | network_0/network_0_fchan_12348 | Beginning channel traversal for flit 3 with delay 1.
9 | network_0/network_0_fchan_12350 | Beginning channel traversal for flit 1 with delay 1.
9 | network_0/router_level2_1 | Received flit 5 from channel at input 1.
9 | network_0/router_level2_7 | Received flit 2 from channel at input 0.
9 | network_0/router_level2_1 | Adding flit 5 to VC 1 at input 1 (state: idle, empty).
9 | network_0/router_level2_1 | Using precomputed lookahead routing information for VC 1 at input 1 (front: 5).
9 | network_0/router_level2_1/buf_1/vc_1 | Changing state from idle to vc_alloc.
9 | network_0/router_level2_1 | Beginning VC allocation for VC 1 at input 1 (front: 5).
9 | network_0/router_level2_1 |   Requesting VC 0 at output 8 (in_pri: 0, out_pri: 0).
9 | network_0/router_level2_1 |   Requesting VC 1 at output 8 (in_pri: 0, out_pri: 0).
9 | network_0/router_level2_1 |   Requesting VC 2 at output 8 (in_pri: 0, out_pri: 0).
9 | network_0/router_level2_1 |   Requesting VC 3 at output 8 (in_pri: 0, out_pri: 0).
9 | network_0/router_level2_1/vc_allocator | Input requests = [ 5 -> [ 32@0 33@0 34@0 35@0 ]  9 -> [ 48@0 50@0 51@0 ]  13 -> [ 37@0 38@0 39@0 ]  17 -> [ 48@0 50@0 51@0 ]  20 -> [ 48@0 50@0 51@0 ]  21 -> [ 44@0 46@0 47@0 ]  28 -> [ 54@0 55@0 ]  29 -> [ 32@0 33@0 34@0 35@0 ]  ], output requests = [ 32 -> [ 5@0 29@0 ]  33 -> [ 5@0 29@0 ]  34 -> [ 5@0 29@0 ]  35 -> [ 5@0 29@0 ]  37 -> [ 13@0 ]  38 -> [ 13@0 ]  39 -> [ 13@0 ]  44 -> [ 21@0 ]  46 -> [ 21@0 ]  47 -> [ 21@0 ]  48 -> [ 9@0 17@0 20@0 ]  50 -> [ 9@0 17@0 20@0 ]  51 -> [ 9@0 17@0 20@0 ]  54 -> [ 28@0 ]  55 -> [ 28@0 ]  ].
9 | network_0/router_level2_1/vc_allocator | Input grants = [ 5 -> 32  9 -> 50  13 -> 37  17 -> 48  21 -> 44  28 -> 54  ], output grants = [ 32 -> 5  37 -> 13  44 -> 21  48 -> 17  50 -> 9  54 -> 28  ].
9 | network_0/router_level2_1 | Assigning VC 0 at output 8 to VC 1 at input 1.
9 | network_0/router_level2_1 | Completed VC allocation for VC 1 at input 1 (front: 5).
9 | network_0/router_level2_1 |   Acquiring assigned VC 0 at output 8.
9 | network_0/router_level2_1/buf_1/vc_1 | Changing state from vc_alloc to active.
9 | network_0/router_level2_7 | Adding flit 2 to VC 0 at input 0 (state: idle, empty).
9 | network_0/router_level2_7 | Using precomputed lookahead routing information for VC 0 at input 0 (front: 2).
9 | network_0/router_level2_7/buf_0/vc_0 | Changing state from idle to vc_alloc.
9 | network_0/router_level2_7 | Beginning VC allocation for VC 0 at input 0 (front: 2).
9 | network_0/router_level2_7 |   Requesting VC 0 at output 11 (in_pri: 0, out_pri: 0).
9 | network_0/router_level2_7 |   Requesting VC 1 at output 11 (in_pri: 0, out_pri: 0).
9 | network_0/router_level2_7 |   Requesting VC 2 at output 11 (in_pri: 0, out_pri: 0).
9 | network_0/router_level2_7 |   Requesting VC 3 at output 11 (in_pri: 0, out_pri: 0).
9 | network_0/router_level2_7/vc_allocator | Input requests = [ 0 -> [ 44@0 45@0 46@0 47@0 ]  8 -> [ 56@0 57@0 58@0 59@0 ]  12 -> [ 52@0 53@0 54@0 55@0 ]  20 -> [ 32@0 33@0 34@0 35@0 ]  ], output requests = [ 32 -> [ 20@0 ]  33 -> [ 20@0 ]  34 -> [ 20@0 ]  35 -> [ 20@0 ]  44 -> [ 0@0 ]  45 -> [ 0@0 ]  46 -> [ 0@0 ]  47 -> [ 0@0 ]  52 -> [ 12@0 ]  53 -> [ 12@0 ]  54 -> [ 12@0 ]  55 -> [ 12@0 ]  56 -> [ 8@0 ]  57 -> [ 8@0 ]  58 -> [ 8@0 ]  59 -> [ 8@0 ]  ].
9 | network_0/router_level2_7/vc_allocator | Input grants = [ 0 -> 44  8 -> 56  12 -> 53  20 -> 32  ], output grants = [ 32 -> 20  44 -> 0  53 -> 12  56 -> 8  ].
9 | network_0/router_level2_7 | Assigning VC 0 at output 11 to VC 0 at input 0.
9 | network_0/router_level2_7 | Completed VC allocation for VC 0 at input 0 (front: 2).
9 | network_0/router_level2_7 |   Acquiring assigned VC 0 at output 11.
9 | network_0/router_level2_7/buf_0/vc_0 | Changing state from vc_alloc to active.
9 | network_0/network_0_fchan_12302 | Completed channel traversal for flit 4.
9 | network_0/network_0_fchan_12306 | Completed channel traversal for flit 8.
9 | network_0/network_0_fchan_12315 | Completed channel traversal for flit 7.
9 | network_0/network_0_fchan_12320 | Completed channel traversal for flit 6.
9 | network_0/network_0_fchan_12321 | Completed channel traversal for flit 10.
9 | network_0/network_0_fchan_12337 | Completed channel traversal for flit 9.
9 | network_0/network_0_fchan_12348 | Completed channel traversal for flit 3.
9 | network_0/network_0_fchan_12350 | Completed channel traversal for flit 1.
10 | network_0/router_level1_4 | Received flit 6 from channel at input 0.
10 | network_0/router_level1_12 | Received flit 10 from channel at input 0.
10 | network_0/router_level1_14 | Received flit 9 from channel at input 0.
10 | network_0/router_level1_18 | Received flit 8 from channel at input 0.
10 | network_0/router_level1_27 | Received flit 7 from channel at input 0.
10 | network_0/router_level1_39 | Received flit 3 from channel at input 0.
10 | network_0/router_level1_49 | Received flit 4 from channel at input 0.
10 | network_0/router_level1_55 | Received flit 1 from channel at input 0.
10 | network_0/router_level1_4 | Adding flit 6 to VC 0 at input 0 (state: idle, empty).
10 | network_0/router_level1_4 | Using precomputed lookahead routing information for VC 0 at input 0 (front: 6).
10 | network_0/router_level1_4/buf_0/vc_0 | Changing state from idle to vc_alloc.
10 | network_0/router_level1_4 | Beginning VC allocation for VC 0 at input 0 (front: 6).
10 | network_0/router_level1_4 |   Requesting VC 0 at output 13 (in_pri: 0, out_pri: 0).
10 | network_0/router_level1_4 |   Requesting VC 1 at output 13 (in_pri: 0, out_pri: 0).
10 | network_0/router_level1_4 |   Requesting VC 2 at output 13 (in_pri: 0, out_pri: 0).
10 | network_0/router_level1_4 |   Requesting VC 3 at output 13 (in_pri: 0, out_pri: 0).
10 | network_0/router_level1_4/vc_allocator | Input requests = [ 0 -> [ 52@0 53@0 54@0 55@0 ]  12 -> [ 36@0 37@0 38@0 39@0 ]  20 -> [ 36@0 37@0 38@0 39@0 ]  28 -> [ 32@0 33@0 34@0 35@0 ]  ], output requests = [ 32 -> [ 28@0 ]  33 -> [ 28@0 ]  34 -> [ 28@0 ]  35 -> [ 28@0 ]  36 -> [ 12@0 20@0 ]  37 -> [ 12@0 20@0 ]  38 -> [ 12@0 20@0 ]  39 -> [ 12@0 20@0 ]  52 -> [ 0@0 ]  53 -> [ 0@0 ]  54 -> [ 0@0 ]  55 -> [ 0@0 ]  ].
10 | network_0/router_level1_4/vc_allocator | Input grants = [ 0 -> 52  12 -> 36  28 -> 32  ], output grants = [ 32 -> 28  36 -> 12  52 -> 0  ].
10 | network_0/router_level1_4 | Assigning VC 0 at output 13 to VC 0 at input 0.
10 | network_0/router_level1_4 | Completed VC allocation for VC 0 at input 0 (front: 6).
10 | network_0/router_level1_4 |   Acquiring assigned VC 0 at output 13.
10 | network_0/router_level1_4/buf_0/vc_0 | Changing state from vc_alloc to active.
10 | network_0/router_level1_12 | Adding flit 10 to VC 0 at input 0 (state: idle, empty).
10 | network_0/router_level1_12 | Using precomputed lookahead routing information for VC 0 at input 0 (front: 10).
10 | network_0/router_level1_12/buf_0/vc_0 | Changing state from idle to vc_alloc.
10 | network_0/router_level1_12 | Beginning VC allocation for VC 0 at input 0 (front: 10).
10 | network_0/router_level1_12 |   Requesting VC 0 at output 8 (in_pri: 0, out_pri: 0).
10 | network_0/router_level1_12 |   Requesting VC 1 at output 8 (in_pri: 0, out_pri: 0).
10 | network_0/router_level1_12 |   Requesting VC 2 at output 8 (in_pri: 0, out_pri: 0).
10 | network_0/router_level1_12 |   Requesting VC 3 at output 8 (in_pri: 0, out_pri: 0).
10 | network_0/router_level1_12/vc_allocator | Input requests = [ 0 -> [ 32@0 33@0 34@0 35@0 ]  4 -> [ 44@0 45@0 46@0 47@0 ]  12 -> [ 40@0 41@0 42@0 43@0 ]  16 -> [ 52@0 53@0 54@0 55@0 ]  ], output requests = [ 32 -> [ 0@0 ]  33 -> [ 0@0 ]  34 -> [ 0@0 ]  35 -> [ 0@0 ]  40 -> [ 12@0 ]  41 -> [ 12@0 ]  42 -> [ 12@0 ]  43 -> [ 12@0 ]  44 -> [ 4@0 ]  45 -> [ 4@0 ]  46 -> [ 4@0 ]  47 -> [ 4@0 ]  52 -> [ 16@0 ]  53 -> [ 16@0 ]  54 -> [ 16@0 ]  55 -> [ 16@0 ]  ].
10 | network_0/router_level1_12/vc_allocator | Input grants = [ 0 -> 32  4 -> 44  12 -> 40  16 -> 52  ], output grants = [ 32 -> 0  40 -> 12  44 -> 4  52 -> 16  ].
10 | network_0/router_level1_12 | Assigning VC 0 at output 8 to VC 0 at input 0.
10 | network_0/router_level1_12 | Completed VC allocation for VC 0 at input 0 (front: 10).
10 | network_0/router_level1_12 |   Acquiring assigned VC 0 at output 8.
10 | network_0/router_level1_12/buf_0/vc_0 | Changing state from vc_alloc to active.
10 | network_0/router_level1_14 | Adding flit 9 to VC 0 at input 0 (state: idle, empty).
10 | network_0/router_level1_14 | Using precomputed lookahead routing information for VC 0 at input 0 (front: 9).
10 | network_0/router_level1_14/buf_0/vc_0 | Changing state from idle to vc_alloc.
10 | network_0/router_level1_14 | Beginning VC allocation for VC 0 at input 0 (front: 9).
10 | network_0/router_level1_14 |   Requesting VC 0 at output 9 (in_pri: 0, out_pri: 0).
10 | network_0/router_level1_14 |   Requesting VC 1 at output 9 (in_pri: 0, out_pri: 0).
10 | network_0/router_level1_14 |   Requesting VC 2 at output 9 (in_pri: 0, out_pri: 0).
10 | network_0/router_level1_14 |   Requesting VC 3 at output 9 (in_pri: 0, out_pri: 0).
10 | network_0/router_level1_14/vc_allocator | Input requests = [ 0 -> [ 36@0 37@0 38@0 39@0 ]  4 -> [ 60@0 61@0 62@0 63@0 ]  8 -> [ 48@0 49@0 50@0 51@0 ]  12 -> [ 56@0 57@0 58@0 59@0 ]  16 -> [ 36@0 37@0 38@0 39@0 ]  28 -> [ 44@0 45@0 46@0 47@0 ]  ], output requests = [ 36 -> [ 0@0 16@0 ]  37 -> [ 0@0 16@0 ]  38 -> [ 0@0 16@0 ]  39 -> [ 0@0 16@0 ]  44 -> [ 28@0 ]  45 -> [ 28@0 ]  46 -> [ 28@0 ]  47 -> [ 28@0 ]  48 -> [ 8@0 ]  49 -> [ 8@0 ]  50 -> [ 8@0 ]  51 -> [ 8@0 ]  56 -> [ 12@0 ]  57 -> [ 12@0 ]  58 -> [ 12@0 ]  59 -> [ 12@0 ]  60 -> [ 4@0 ]  61 -> [ 4@0 ]  62 -> [ 4@0 ]  63 -> [ 4@0 ]  ].
10 | network_0/router_level1_14/vc_allocator | Input grants = [ 0 -> 36  4 -> 60  8 -> 48  12 -> 56  28 -> 44  ], output grants = [ 36 -> 0  44 -> 28  48 -> 8  56 -> 12  60 -> 4  ].
10 | network_0/router_level1_14 | Assigning VC 0 at output 9 to VC 0 at input 0.
10 | network_0/router_level1_14 | Completed VC allocation for VC 0 at input 0 (front: 9).
10 | network_0/router_level1_14 |   Acquiring assigned VC 0 at output 9.
10 | network_0/router_level1_14/buf_0/vc_0 | Changing state from vc_alloc to active.
10 | network_0/router_level1_18 | Adding flit 8 to VC 0 at input 0 (state: idle, empty).
10 | network_0/router_level1_18 | Using precomputed lookahead routing information for VC 0 at input 0 (front: 8).
10 | network_0/router_level1_18/buf_0/vc_0 | Changing state from idle to vc_alloc.
10 | network_0/router_level1_18 | Beginning VC allocation for VC 0 at input 0 (front: 8).
10 | network_0/router_level1_18 |   Requesting VC 0 at output 12 (in_pri: 0, out_pri: 0).
10 | network_0/router_level1_18 |   Requesting VC 1 at output 12 (in_pri: 0, out_pri: 0).
10 | network_0/router_level1_18 |   Requesting VC 2 at output 12 (in_pri: 0, out_pri: 0).
10 | network_0/router_level1_18 |   Requesting VC 3 at output 12 (in_pri: 0, out_pri: 0).
10 | network_0/router_level1_18/vc_allocator | Input requests = [ 0 -> [ 48@0 49@0 50@0 51@0 ]  12 -> [ 52@0 53@0 54@0 55@0 ]  16 -> [ 52@0 53@0 54@0 55@0 ]  ], output requests = [ 48 -> [ 0@0 ]  49 -> [ 0@0 ]  50 -> [ 0@0 ]  51 -> [ 0@0 ]  52 -> [ 12@0 16@0 ]  53 -> [ 12@0 16@0 ]  54 -> [ 12@0 16@0 ]  55 -> [ 12@0 16@0 ]  ].
10 | network_0/router_level1_18/vc_allocator | Input grants = [ 0 -> 48  12 -> 52  ], output grants = [ 48 -> 0  52 -> 12  ].
10 | network_0/router_level1_18 | Assigning VC 0 at output 12 to VC 0 at input 0.
10 | network_0/router_level1_18 | Completed VC allocation for VC 0 at input 0 (front: 8).
10 | network_0/router_level1_18 |   Acquiring assigned VC 0 at output 12.
10 | network_0/router_level1_18/buf_0/vc_0 | Changing state from vc_alloc to active.
10 | network_0/router_level1_27 | Adding flit 7 to VC 0 at input 0 (state: idle, empty).
10 | network_0/router_level1_27 | Using precomputed lookahead routing information for VC 0 at input 0 (front: 7).
10 | network_0/router_level1_27/buf_0/vc_0 | Changing state from idle to vc_alloc.
10 | network_0/router_level1_27 | Beginning VC allocation for VC 0 at input 0 (front: 7).
10 | network_0/router_level1_27 |   Requesting VC 0 at output 14 (in_pri: 0, out_pri: 0).
10 | network_0/router_level1_27 |   Requesting VC 1 at output 14 (in_pri: 0, out_pri: 0).
10 | network_0/router_level1_27 |   Requesting VC 2 at output 14 (in_pri: 0, out_pri: 0).
10 | network_0/router_level1_27 |   Requesting VC 3 at output 14 (in_pri: 0, out_pri: 0).
10 | network_0/router_level1_27/vc_allocator | Input requests = [ 0 -> [ 56@0 57@0 58@0 59@0 ]  4 -> [ 32@0 33@0 34@0 35@0 ]  12 -> [ 60@0 61@0 62@0 63@0 ]  24 -> [ 32@0 33@0 34@0 35@0 ]  ], output requests = [ 32 -> [ 4@0 24@0 ]  33 -> [ 4@0 24@0 ]  34 -> [ 4@0 24@0 ]  35 -> [ 4@0 24@0 ]  56 -> [ 0@0 ]  57 -> [ 0@0 ]  58 -> [ 0@0 ]  59 -> [ 0@0 ]  60 -> [ 12@0 ]  61 -> [ 12@0 ]  62 -> [ 12@0 ]  63 -> [ 12@0 ]  ].
10 | network_0/router_level1_27/vc_allocator | Input grants = [ 0 -> 56  4 -> 32  12 -> 60  ], output grants = [ 32 -> 4  56 -> 0  60 -> 12  ].
10 | network_0/router_level1_27 | Assigning VC 0 at output 14 to VC 0 at input 0.
10 | network_0/router_level1_27 | Completed VC allocation for VC 0 at input 0 (front: 7).
10 | network_0/router_level1_27 |   Acquiring assigned VC 0 at output 14.
10 | network_0/router_level1_27/buf_0/vc_0 | Changing state from vc_alloc to active.
10 | network_0/router_level1_39 | Adding flit 3 to VC 0 at input 0 (state: idle, empty).
10 | network_0/router_level1_39 | Using precomputed lookahead routing information for VC 0 at input 0 (front: 3).
10 | network_0/router_level1_39/buf_0/vc_0 | Changing state from idle to vc_alloc.
10 | network_0/router_level1_39 | Beginning VC allocation for VC 0 at input 0 (front: 3).
10 | network_0/router_level1_39 |   Requesting VC 0 at output 14 (in_pri: 0, out_pri: 0).
10 | network_0/router_level1_39 |   Requesting VC 1 at output 14 (in_pri: 0, out_pri: 0).
10 | network_0/router_level1_39 |   Requesting VC 2 at output 14 (in_pri: 0, out_pri: 0).
10 | network_0/router_level1_39 |   Requesting VC 3 at output 14 (in_pri: 0, out_pri: 0).
10 | network_0/router_level1_39/vc_allocator | Input requests = [ 0 -> [ 56@0 57@0 58@0 59@0 ]  8 -> [ 44@0 45@0 46@0 47@0 ]  16 -> [ 60@0 61@0 62@0 63@0 ]  24 -> [ 60@0 61@0 62@0 63@0 ]  ], output requests = [ 44 -> [ 8@0 ]  45 -> [ 8@0 ]  46 -> [ 8@0 ]  47 -> [ 8@0 ]  56 -> [ 0@0 ]  57 -> [ 0@0 ]  58 -> [ 0@0 ]  59 -> [ 0@0 ]  60 -> [ 16@0 24@0 ]  61 -> [ 16@0 24@0 ]  62 -> [ 16@0 24@0 ]  63 -> [ 16@0 24@0 ]  ].
10 | network_0/router_level1_39/vc_allocator | Input grants = [ 0 -> 56  8 -> 44  16 -> 60  ], output grants = [ 44 -> 8  56 -> 0  60 -> 16  ].
10 | network_0/router_level1_39 | Assigning VC 0 at output 14 to VC 0 at input 0.
10 | network_0/router_level1_39 | Completed VC allocation for VC 0 at input 0 (front: 3).
10 | network_0/router_level1_39 |   Acquiring assigned VC 0 at output 14.
10 | network_0/router_level1_39/buf_0/vc_0 | Changing state from vc_alloc to active.
10 | network_0/router_level1_49 | Adding flit 4 to VC 0 at input 0 (state: idle, empty).
10 | network_0/router_level1_49 | Using precomputed lookahead routing information for VC 0 at input 0 (front: 4).
10 | network_0/router_level1_49/buf_0/vc_0 | Changing state from idle to vc_alloc.
10 | network_0/router_level1_49 | Beginning VC allocation for VC 0 at input 0 (front: 4).
10 | network_0/router_level1_49 |   Requesting VC 0 at output 13 (in_pri: 0, out_pri: 0).
10 | network_0/router_level1_49 |   Requesting VC 1 at output 13 (in_pri: 0, out_pri: 0).
10 | network_0/router_level1_49 |   Requesting VC 2 at output 13 (in_pri: 0, out_pri: 0).
10 | network_0/router_level1_49 |   Requesting VC 3 at output 13 (in_pri: 0, out_pri: 0).
10 | network_0/router_level1_49/vc_allocator | Input requests = [ 0 -> [ 52@0 53@0 54@0 55@0 ]  20 -> [ 56@0 57@0 58@0 59@0 ]  24 -> [ 32@0 33@0 34@0 35@0 ]  28 -> [ 32@0 33@0 34@0 35@0 ]  ], output requests = [ 32 -> [ 24@0 28@0 ]  33 -> [ 24@0 28@0 ]  34 -> [ 24@0 28@0 ]  35 -> [ 24@0 28@0 ]  52 -> [ 0@0 ]  53 -> [ 0@0 ]  54 -> [ 0@0 ]  55 -> [ 0@0 ]  56 -> [ 20@0 ]  57 -> [ 20@0 ]  58 -> [ 20@0 ]  59 -> [ 20@0 ]  ].
10 | network_0/router_level1_49/vc_allocator | Input grants = [ 0 -> 52  20 -> 56  24 -> 32  ], output grants = [ 32 -> 24  52 -> 0  56 -> 20  ].
10 | network_0/router_level1_49 | Assigning VC 0 at output 13 to VC 0 at input 0.
10 | network_0/router_level1_49 | Completed VC allocation for VC 0 at input 0 (front: 4).
10 | network_0/router_level1_49 |   Acquiring assigned VC 0 at output 13.
10 | network_0/router_level1_49/buf_0/vc_0 | Changing state from vc_alloc to active.
10 | network_0/router_level1_55 | Adding flit 1 to VC 0 at input 0 (state: idle, empty).
10 | network_0/router_level1_55 | Using precomputed lookahead routing information for VC 0 at input 0 (front: 1).
10 | network_0/router_level1_55/buf_0/vc_0 | Changing state from idle to vc_alloc.
10 | network_0/router_level1_55 | Beginning VC allocation for VC 0 at input 0 (front: 1).
10 | network_0/router_level1_55 |   Requesting VC 0 at output 12 (in_pri: 0, out_pri: 0).
10 | network_0/router_level1_55 |   Requesting VC 1 at output 12 (in_pri: 0, out_pri: 0).
10 | network_0/router_level1_55 |   Requesting VC 2 at output 12 (in_pri: 0, out_pri: 0).
10 | network_0/router_level1_55 |   Requesting VC 3 at output 12 (in_pri: 0, out_pri: 0).
10 | network_0/router_level1_55/vc_allocator | Input requests = [ 0 -> [ 48@0 49@0 50@0 51@0 ]  8 -> [ 56@0 57@0 58@0 59@0 ]  12 -> [ 52@0 53@0 54@0 55@0 ]  20 -> [ 56@0 57@0 58@0 59@0 ]  ], output requests = [ 48 -> [ 0@0 ]  49 -> [ 0@0 ]  50 -> [ 0@0 ]  51 -> [ 0@0 ]  52 -> [ 12@0 ]  53 -> [ 12@0 ]  54 -> [ 12@0 ]  55 -> [ 12@0 ]  56 -> [ 8@0 20@0 ]  57 -> [ 8@0 20@0 ]  58 -> [ 8@0 20@0 ]  59 -> [ 8@0 20@0 ]  ].
[...]
28 | network_0/router_level3_510 | Completed crossbar traversal for flit 6 from input 12.0 to output 3.0.
28 | network_0/router_level3_510 | Buffering flit 6 at output 3.
28 | network_0/router_level3_510 | Completed crossbar traversal for flit 9 from input 14.0 to output 0.0.
28 | network_0/router_level3_510 | Buffering flit 9 at output 0.
28 | network_0/router_level3_510 | Completed crossbar traversal for flit 3 from input 15.0 to output 7.0.
28 | network_0/router_level3_510 | Buffering flit 3 at output 7.
28 | network_0/router_level3_511 | Beginning crossbar traversal for flit 1 from input 15.0 to output 3.0.
28 | network_0/router_level3_511 | Completed crossbar traversal for flit 1 from input 15.0 to output 3.0.
28 | network_0/router_level3_511 | Buffering flit 1 at output 3.
28 | network_0/network_0_fchan_20430 | Completed channel traversal for flit 5.
28 | network_0/network_0_fchan_20479 | Completed channel traversal for flit 2.
28 | network_0/router_level3_509 | Sending flit 10 to channel at output 6.
28 | network_0/router_level3_510 | Sending flit 9 to channel at output 0.
28 | network_0/router_level3_510 | Sending flit 8 to channel at output 1.
28 | network_0/router_level3_510 | Sending flit 7 to channel at output 2.
28 | network_0/router_level3_510 | Sending flit 6 to channel at output 3.
28 | network_0/router_level3_510 | Sending flit 4 to channel at output 6.
28 | network_0/router_level3_510 | Sending flit 3 to channel at output 7.
28 | network_0/router_level3_511 | Sending flit 1 to channel at output 3.
29 | network_0/network_0_fchan_egress4078 | Beginning channel traversal for flit 10 with delay 1.
29 | network_0/network_0_fchan_egress4080 | Beginning channel traversal for flit 9 with delay 1.
29 | network_0/network_0_fchan_egress4081 | Beginning channel traversal for flit 8 with delay 1.
29 | network_0/network_0_fchan_egress4082 | Beginning channel traversal for flit 7 with delay 1.
29 | network_0/network_0_fchan_egress4083 | Beginning channel traversal for flit 6 with delay 1.
29 | network_0/network_0_fchan_egress4086 | Beginning channel traversal for flit 4 with delay 1.
29 | network_0/network_0_fchan_egress4087 | Beginning channel traversal for flit 3 with delay 1.
29 | network_0/network_0_fchan_egress4091 | Beginning channel traversal for flit 1 with delay 1.
29 | network_0/router_level3_510 | Received flit 5 from channel at input 9.
29 | network_0/router_level3_511 | Received flit 2 from channel at input 15.
29 | network_0/router_level3_510 | Adding flit 5 to VC 1 at input 9 (state: idle, empty).
29 | network_0/router_level3_510 | Using precomputed lookahead routing information for VC 1 at input 9 (front: 5).
29 | network_0/router_level3_510/buf_9/vc_1 | Changing state from idle to vc_alloc.
29 | network_0/router_level3_510 | Beginning VC allocation for VC 1 at input 9 (front: 5).
29 | network_0/router_level3_510 |   Requesting VC 0 at output 4 (in_pri: 0, out_pri: 0).
29 | network_0/router_level3_510 |   Requesting VC 1 at output 4 (in_pri: 0, out_pri: 0).
29 | network_0/router_level3_510 |   Requesting VC 2 at output 4 (in_pri: 0, out_pri: 0).
29 | network_0/router_level3_510 |   Requesting VC 3 at output 4 (in_pri: 0, out_pri: 0).
29 | network_0/router_level3_510/vc_allocator | Input requests = [ 0 -> [ 48@0 50@0 51@0 ]  6 -> [ 53@0 54@0 55@0 ]  10 -> [ 44@0 ]  11 -> [ 53@0 54@0 55@0 ]  12 -> [ 41@0 42@0 43@0 ]  28 -> [ 33@0 34@0 35@0 ]  37 -> [ 16@0 17@0 18@0 19@0 ]  44 -> [ 28@0 29@0 30@0 31@0 ]  48 -> [ 9@0 10@0 11@0 ]  56 -> [ 20@0 21@0 22@0 23@0 ]  ], output requests = [ 9 -> [ 48@0 ]  10 -> [ 48@0 ]  11 -> [ 48@0 ]  16 -> [ 37@0 ]  17 -> [ 37@0 ]  18 -> [ 37@0 ]  19 -> [ 37@0 ]  20 -> [ 56@0 ]  21 -> [ 56@0 ]  22 -> [ 56@0 ]  23 -> [ 56@0 ]  28 -> [ 44@0 ]  29 -> [ 44@0 ]  30 -> [ 44@0 ]  31 -> [ 44@0 ]  33 -> [ 28@0 ]  34 -> [ 28@0 ]  35 -> [ 28@0 ]  41 -> [ 12@0 ]  42 -> [ 12@0 ]  43 -> [ 12@0 ]  44 -> [ 10@0 ]  48 -> [ 0@0 ]  50 -> [ 0@0 ]  51 -> [ 0@0 ]  53 -> [ 6@0 11@0 ]  54 -> [ 6@0 11@0 ]  55 -> [ 6@0 11@0 ]  ].
29 | network_0/router_level3_510/vc_allocator | Input grants = [ 0 -> 48  6 -> 53  10 -> 44  12 -> 41  28 -> 33  37 -> 16  44 -> 28  48 -> 9  56 -> 20  ], output grants = [ 9 -> 48  16 -> 37  20 -> 56  28 -> 44  33 -> 28  41 -> 12  44 -> 10  48 -> 0  53 -> 6  ].
29 | network_0/router_level3_510 | Assigning VC 0 at output 4 to VC 1 at input 9.
29 | network_0/router_level3_510 | Completed VC allocation for VC 1 at input 9 (front: 5).
29 | network_0/router_level3_510 |   Acquiring assigned VC 0 at output 4.
29 | network_0/router_level3_510/buf_9/vc_1 | Changing state from vc_alloc to active.
29 | network_0/router_level3_511 | Adding flit 2 to VC 0 at input 15 (state: idle, empty).
29 | network_0/router_level3_511 | Using precomputed lookahead routing information for VC 0 at input 15 (front: 2).
29 | network_0/router_level3_511/buf_15/vc_0 | Changing state from idle to vc_alloc.
29 | network_0/router_level3_511 | Beginning VC allocation for VC 0 at input 15 (front: 2).
29 | network_0/router_level3_511 |   VC 0 at output 2 is in use by VC 1 at input 14 (front flit: 2596).
29 | network_0/router_level3_511 |   Requesting VC 1 at output 2 (in_pri: 0, out_pri: 0).
29 | network_0/router_level3_511 |   Requesting VC 2 at output 2 (in_pri: 0, out_pri: 0).
29 | network_0/router_level3_511 |   Requesting VC 3 at output 2 (in_pri: 0, out_pri: 0).
29 | network_0/router_level3_511/vc_allocator | Input requests = [ 0 -> [ 56@0 59@0 ]  1 -> [ 49@0 50@0 51@0 ]  3 -> [ 56@0 59@0 ]  14 -> [ 49@0 50@0 51@0 ]  21 -> [ 33@0 34@0 35@0 ]  25 -> [ 33@0 34@0 35@0 ]  27 -> [ 33@0 34@0 35@0 ]  30 -> [ 33@0 34@0 35@0 ]  40 -> [ 20@0 21@0 22@0 23@0 ]  52 -> [ 13@0 14@0 15@0 ]  60 -> [ 9@0 10@0 11@0 ]  ], output requests = [ 9 -> [ 60@0 ]  10 -> [ 60@0 ]  11 -> [ 60@0 ]  13 -> [ 52@0 ]  14 -> [ 52@0 ]  15 -> [ 52@0 ]  20 -> [ 40@0 ]  21 -> [ 40@0 ]  22 -> [ 40@0 ]  23 -> [ 40@0 ]  33 -> [ 21@0 25@0 27@0 30@0 ]  34 -> [ 21@0 25@0 27@0 30@0 ]  35 -> [ 21@0 25@0 27@0 30@0 ]  49 -> [ 1@0 14@0 ]  50 -> [ 1@0 14@0 ]  51 -> [ 1@0 14@0 ]  56 -> [ 0@0 3@0 ]  59 -> [ 0@0 3@0 ]  ].
29 | network_0/router_level3_511/vc_allocator | Input grants = [ 0 -> 56  1 -> 49  30 -> 33  40 -> 20  52 -> 13  60 -> 9  ], output grants = [ 9 -> 60  13 -> 52  20 -> 40  33 -> 30  49 -> 1  56 -> 0  ].
29 | network_0/router_level3_511 | Assigning VC 1 at output 2 to VC 0 at input 15.
29 | network_0/router_level3_511 | Completed VC allocation for VC 0 at input 15 (front: 2).
29 | network_0/router_level3_511 |   Acquiring assigned VC 1 at output 2.
29 | network_0/router_level3_511/buf_15/vc_0 | Changing state from vc_alloc to active.
29 | network_0/network_0_fchan_egress4078 | Completed channel traversal for flit 10.
29 | network_0/network_0_fchan_egress4080 | Completed channel traversal for flit 9.
29 | network_0/network_0_fchan_egress4081 | Completed channel traversal for flit 8.
29 | network_0/network_0_fchan_egress4082 | Completed channel traversal for flit 7.
29 | network_0/network_0_fchan_egress4083 | Completed channel traversal for flit 6.
29 | network_0/network_0_fchan_egress4086 | Completed channel traversal for flit 4.
29 | network_0/network_0_fchan_egress4087 | Completed channel traversal for flit 3.
29 | network_0/network_0_fchan_egress4091 | Completed channel traversal for flit 1.
30 | node4078 | Ejecting flit 10 (packet 10) from VC 0.
30 | node4080 | Ejecting flit 9 (packet 9) from VC 0.
30 | node4081 | Ejecting flit 8 (packet 8) from VC 0.
30 | node4082 | Ejecting flit 7 (packet 7) from VC 0.
30 | node4083 | Ejecting flit 6 (packet 6) from VC 0.
30 | node4086 | Ejecting flit 4 (packet 4) from VC 0.
30 | node4087 | Ejecting flit 3 (packet 3) from VC 0.
30 | node4091 | Ejecting flit 1 (packet 1) from VC 0.
30 | node4078 | Injecting credit for VC 0 into subnet 0.
30 | node4078 | Retiring flit 10 (packet 10, src = 17, dest = 4078, hops = 7, flat = 30).
30 | node4078 | Retiring packet 10 (plat = 30, nlat = 30, frag = 0, src = 17, dest = 4078).
30 | node4080 | Injecting credit for VC 0 into subnet 0.
30 | node4080 | Retiring flit 9 (packet 9, src = 15, dest = 4080, hops = 7, flat = 30).
30 | node4080 | Retiring packet 9 (plat = 30, nlat = 30, frag = 0, src = 15, dest = 4080).
30 | node4081 | Injecting credit for VC 0 into subnet 0.
30 | node4081 | Retiring flit 8 (packet 8, src = 14, dest = 4081, hops = 7, flat = 30).
30 | node4081 | Retiring packet 8 (plat = 30, nlat = 30, frag = 0, src = 14, dest = 4081).
30 | node4082 | Injecting credit for VC 0 into subnet 0.
30 | node4082 | Retiring flit 7 (packet 7, src = 13, dest = 4082, hops = 7, flat = 30).
30 | node4082 | Retiring packet 7 (plat = 30, nlat = 30, frag = 0, src = 13, dest = 4082).
30 | node4083 | Injecting credit for VC 0 into subnet 0.
30 | node4083 | Retiring flit 6 (packet 6, src = 12, dest = 4083, hops = 7, flat = 30).
30 | node4083 | Retiring packet 6 (plat = 30, nlat = 30, frag = 0, src = 12, dest = 4083).
30 | node4086 | Injecting credit for VC 0 into subnet 0.
30 | node4086 | Retiring flit 4 (packet 4, src = 9, dest = 4086, hops = 7, flat = 30).
30 | node4086 | Retiring packet 4 (plat = 30, nlat = 30, frag = 0, src = 9, dest = 4086).
30 | node4087 | Injecting credit for VC 0 into subnet 0.
30 | node4087 | Retiring flit 3 (packet 3, src = 8, dest = 4087, hops = 7, flat = 30).
30 | node4087 | Retiring packet 3 (plat = 30, nlat = 30, frag = 0, src = 8, dest = 4087).
30 | node4091 | Injecting credit for VC 0 into subnet 0.
30 | node4091 | Retiring flit 1 (packet 1, src = 4, dest = 4091, hops = 7, flat = 30).
30 | node4091 | Retiring packet 1 (plat = 30, nlat = 30, frag = 0, src = 4, dest = 4091).
30 | network_0/router_level3_510 | Beginning switch allocation for VC 1 at input 9 (front: 5).
30 | network_0/router_level3_510 |   Requesting output 4.0 (non-spec, pri: 0).
30 | network_0/router_level3_510/sw_allocator | Input requests = [ 0 -> [ 12@0 ]  1 -> [ 13@0 ]  2 -> [ 11@0 ]  3 -> [ 10@0 ]  4 -> [ 10@0 ]  5 -> [ 14@0 ]  6 -> [ 11@0 12@0 ]  7 -> [ 8@0 15@0 ]  9 -> [ 4@0 ]  11 -> [ 7@0 ]  12 -> [ 2@0 ]  14 -> [ 5@0 ]  ], output requests = [ 2 -> [ 12@0 ]  4 -> [ 9@0 ]  5 -> [ 14@0 ]  7 -> [ 11@0 ]  8 -> [ 7@0 ]  10 -> [ 3@0 4@0 ]  11 -> [ 2@0 6@0 ]  12 -> [ 0@0 6@0 ]  13 -> [ 1@0 ]  14 -> [ 5@0 ]  15 -> [ 7@0 ]  ].
30 | network_0/router_level3_510/sw_allocator | Input grants = [ 0 -> 12  1 -> 13  2 -> 11  3 -> 10  5 -> 14  7 -> 15  9 -> 4  11 -> 7  12 -> 2  14 -> 5  ], output grants = [ 2 -> 12  4 -> 9  5 -> 14  7 -> 11  10 -> 3  11 -> 2  12 -> 0  13 -> 1  14 -> 5  15 -> 7  ].
30 | network_0/router_level3_510 | Assigning output 4.0 to VC 1 at input 9.0.
30 | network_0/router_level3_510 | Completed switch allocation for VC 1 at input 9 (front: 5).
30 | network_0/router_level3_510 |   Scheduling switch connection from input 9.0 to output 4.0.
30 | network_0/router_level3_511 | Beginning switch allocation for VC 0 at input 15 (front: 2).
30 | network_0/router_level3_511 |   Requesting output 2.0 (non-spec, pri: 0).
30 | network_0/router_level3_511/sw_allocator | Input requests = [ 0 -> [ 12@0 14@0 ]  3 -> [ 10@0 ]  4 -> [ 13@0 ]  5 -> [ 12@0 ]  6 -> [ 8@0 ]  7 -> [ 8@0 11@0 14@0 ]  10 -> [ 5@0 ]  13 -> [ 3@0 ]  15 -> [ 2@0 ]  ], output requests = [ 2 -> [ 15@0 ]  3 -> [ 13@0 ]  5 -> [ 10@0 ]  8 -> [ 6@0 7@0 ]  10 -> [ 3@0 ]  11 -> [ 7@0 ]  12 -> [ 0@0 5@0 ]  13 -> [ 4@0 ]  14 -> [ 0@0 7@0 ]  ].
30 | network_0/router_level3_511/sw_allocator | Input grants = [ 3 -> 10  4 -> 13  5 -> 12  6 -> 8  7 -> 11  10 -> 5  13 -> 3  15 -> 2  ], output grants = [ 2 -> 15  3 -> 13  5 -> 10  8 -> 6  10 -> 3  11 -> 7  12 -> 5  13 -> 4  ].
30 | network_0/router_level3_511 | Assigning output 2.0 to VC 0 at input 15.0.
30 | network_0/router_level3_511 | Completed switch allocation for VC 0 at input 15 (front: 2).
30 | network_0/router_level3_511 |   Scheduling switch connection from input 15.0 to output 2.0.
31 | network_0/router_level3_510 | Beginning crossbar traversal for flit 5 from input 9.0 to output 4.0.
31 | network_0/router_level3_510 | Completed crossbar traversal for flit 5 from input 9.0 to output 4.0.
31 | network_0/router_level3_510 | Buffering flit 5 at output 4.
31 | network_0/router_level3_511 | Beginning crossbar traversal for flit 2 from input 15.0 to output 2.0.
31 | network_0/router_level3_511 | Completed crossbar traversal for flit 2 from input 15.0 to output 2.0.
31 | network_0/router_level3_511 | Buffering flit 2 at output 2.
31 | network_0/router_level3_510 | Sending flit 5 to channel at output 4.
31 | network_0/router_level3_511 | Sending flit 2 to channel at output 2.
32 | network_0/network_0_fchan_egress4084 | Beginning channel traversal for flit 5 with delay 1.
32 | network_0/network_0_fchan_egress4090 | Beginning channel traversal for flit 2 with delay 1.
32 | network_0/network_0_fchan_egress4084 | Completed channel traversal for flit 5.
32 | network_0/network_0_fchan_egress4090 | Completed channel traversal for flit 2.
33 | node4084 | Ejecting flit 5 (packet 5) from VC 0.
33 | node4090 | Ejecting flit 2 (packet 2) from VC 1.
33 | node4084 | Injecting credit for VC 0 into subnet 0.
33 | node4084 | Retiring flit 5 (packet 5, src = 11, dest = 4084, hops = 7, flat = 33).
33 | node4084 | Retiring packet 5 (plat = 33, nlat = 33, frag = 0, src = 11, dest = 4084).
33 | node4090 | Injecting credit for VC 1 into subnet 0.
33 | node4090 | Retiring flit 2 (packet 2, src = 5, dest = 4090, hops = 7, flat = 33).
33 | node4090 | Retiring packet 2 (plat = 33, nlat = 33, frag = 0, src = 5, dest = 4090).
Class 0:
Packet latency average = 78.9612
	minimum = 30
	maximum = 305
Network latency average = 78.9612
	minimum = 30
	maximum = 305
Slowest packet = 1726357
Flit latency average = 78.9612
	minimum = 30
	maximum = 305
Slowest flit = 1726357
Fragmentation average = 0
	minimum = 0
	maximum = 0
Injected packet rate average = 0.649729
	minimum = 0.596 (at node 746)
	maximum = 0.698 (at node 13)
Accepted packet rate average = 0.585089
	minimum = 0.532 (at node 884)
	maximum = 0.634 (at node 1918)
Injected flit rate average = 0.649729
	minimum = 0.596 (at node 746)
	maximum = 0.698 (at node 13)
Accepted flit rate average= 0.585089
	minimum = 0.532 (at node 884)
	maximum = 0.634 (at node 1918)
Injected packet length average = 1
Accepted packet length average = 1
Total in-flight flits = 264768 (0 measured)
latency change    = 1
throughput change = 1
Class 0:
Packet latency average = 94.6569
	minimum = 30
	maximum = 392
Network latency average = 94.6569
	minimum = 30
	maximum = 392
Slowest packet = 2771728
Flit latency average = 94.6569
	minimum = 30
	maximum = 392
Slowest flit = 2771728
Fragmentation average = 0
	minimum = 0
	maximum = 0
Injected packet rate average = 0.649816
	minimum = 0.6105 (at node 1425)
	maximum = 0.688 (at node 2257)
Accepted packet rate average = 0.611792
	minimum = 0.5715 (at node 2670)
	maximum = 0.6455 (at node 1838)
Injected flit rate average = 0.649816
	minimum = 0.6105 (at node 1425)
	maximum = 0.688 (at node 2257)
Accepted flit rate average= 0.611792
	minimum = 0.5715 (at node 2670)
	maximum = 0.6455 (at node 1838)
Injected packet length average = 1
Accepted packet length average = 1
Total in-flight flits = 311490 (0 measured)
latency change    = 0.165816
throughput change = 0.0436478
Class 0:
Packet latency average = 121.691
	minimum = 30
	maximum = 433
Network latency average = 121.691
	minimum = 30
	maximum = 433
Slowest packet = 6729298
Flit latency average = 121.691
	minimum = 30
	maximum = 433
Slowest flit = 6729298
Fragmentation average = 0
	minimum = 0
	maximum = 0
Injected packet rate average = 0.650043
	minimum = 0.598 (at node 688)
	maximum = 0.705 (at node 3032)
Accepted packet rate average = 0.644328
	minimum = 0.595 (at node 3186)
	maximum = 0.696 (at node 1838)
Injected flit rate average = 0.650043
	minimum = 0.598 (at node 688)
	maximum = 0.705 (at node 3032)
Accepted flit rate average= 0.644328
	minimum = 0.595 (at node 3186)
	maximum = 0.696 (at node 1838)
Injected packet length average = 1
Accepted packet length average = 1
Total in-flight flits = 334899 (0 measured)
latency change    = 0.222154
throughput change = 0.0504959
Warmed up ...Time used is 3000 cycles
Class 0:
Packet latency average = 125.915
	minimum = 31
	maximum = 441
Network latency average = 125.915
	minimum = 31
	maximum = 441
Slowest packet = 8789533
Flit latency average = 127.939
	minimum = 31
	maximum = 441
Slowest flit = 8789533
Fragmentation average = 0
	minimum = 0
	maximum = 0
Injected packet rate average = 0.649896
	minimum = 0.603 (at node 1114)
	maximum = 0.698 (at node 3432)
Accepted packet rate average = 0.647072
	minimum = 0.592 (at node 2918)
	maximum = 0.724 (at node 3736)
Injected flit rate average = 0.649896
	minimum = 0.603 (at node 1114)
	maximum = 0.698 (at node 3432)
Accepted flit rate average= 0.647072
	minimum = 0.592 (at node 2918)
	maximum = 0.724 (at node 3736)
Injected packet length average = 1
Accepted packet length average = 1
Total in-flight flits = 346466 (346466 measured)
latency change    = 0.0335443
throughput change = 0.00424011
Class 0:
Packet latency average = 128.826
	minimum = 30
	maximum = 454
Network latency average = 128.826
	minimum = 30
	maximum = 454
Slowest packet = 9486586
Flit latency average = 129.653
	minimum = 30
	maximum = 454
Slowest flit = 9486586
Fragmentation average = 0
	minimum = 0
	maximum = 0
Injected packet rate average = 0.649937
	minimum = 0.6135 (at node 1327)
	maximum = 0.686 (at node 2470)
Accepted packet rate average = 0.647752
	minimum = 0.61 (at node 1706)
	maximum = 0.6905 (at node 3736)
Injected flit rate average = 0.649937
	minimum = 0.6135 (at node 1327)
	maximum = 0.686 (at node 2470)
Accepted flit rate average= 0.647752
	minimum = 0.61 (at node 1706)
	maximum = 0.6905 (at node 3736)
Injected packet length average = 1
Accepted packet length average = 1
Total in-flight flits = 352800 (352800 measured)
latency change    = 0.0225977
throughput change = 0.001051
Class 0:
Packet latency average = 130.422
	minimum = 30
	maximum = 454
Network latency average = 130.422
	minimum = 30
	maximum = 454
Slowest packet = 9486586
Flit latency average = 130.906
	minimum = 30
	maximum = 454
Slowest flit = 9486586
Fragmentation average = 0
	minimum = 0
	maximum = 0
Injected packet rate average = 0.650031
	minimum = 0.614667 (at node 1327)
	maximum = 0.679667 (at node 2558)
Accepted packet rate average = 0.648198
	minimum = 0.618333 (at node 2943)
	maximum = 0.674333 (at node 2028)
Injected flit rate average = 0.650031
	minimum = 0.614667 (at node 1327)
	maximum = 0.679667 (at node 2558)
Accepted flit rate average= 0.648198
	minimum = 0.618333 (at node 2943)
	maximum = 0.674333 (at node 2028)
Injected packet length average = 1
Accepted packet length average = 1
Total in-flight flits = 357421 (357421 measured)
latency change    = 0.0122396
throughput change = 0.000687189
Draining all recorded packets ...
Draining remaining packets ...
Time taken is 6599 cycles
====== Overall Traffic Statistics ======
====== Traffic class 0 ======
Packet latency average = 131.354 (1 samples)
	minimum = 30 (1 samples)
	maximum = 454 (1 samples)
Network latency average = 131.354 (1 samples)
	minimum = 30 (1 samples)
	maximum = 454 (1 samples)
Flit latency average = 131.845 (1 samples)
	minimum = 30 (1 samples)
	maximum = 454 (1 samples)
Fragmentation average = 0 (1 samples)
	minimum = 0 (1 samples)
	maximum = 0 (1 samples)
Injected packet rate average = 0.650031 (1 samples)
	minimum = 0.614667 (1 samples)
	maximum = 0.679667 (1 samples)
Accepted packet rate average = 0.648198 (1 samples)
	minimum = 0.618333 (1 samples)
	maximum = 0.674333 (1 samples)
Injected flit rate average = 0.650031 (1 samples)
	minimum = 0.614667 (1 samples)
	maximum = 0.679667 (1 samples)
Accepted flit rate average = 0.648198 (1 samples)
	minimum = 0.618333 (1 samples)
	maximum = 0.674333 (1 samples)
Injected packet size average = 1 (1 samples)
Accepted packet size average = 1 (1 samples)
Hops average = 7 (1 samples)
Total run time 1672.8
