BEGIN Configuration File: examples/fattree_config_0.50_1_transpose
// $Id: dragonflyconfig 3555 2011-05-16 23:37:55Z dub $

// Copyright (c) 2007-2015, Trustees of The Leland Stanford Junior University
// All rights reserved.
//
// Redistribution and use in source and binary forms, with or without
// modification, are permitted provided that the following conditions are met:
//
// Redistributions of source code must retain the above copyright notice, this
// list of conditions and the following disclaimer.
// Redistributions in binary form must reproduce the above copyright notice,
// this list of conditions and the following disclaimer in the documentation
// and/or other materials provided with the distribution.
//
// THIS SOFTWARE IS PROVIDED BY THE COPYRIGHT HOLDERS AND CONTRIBUTORS "AS IS"
// AND ANY EXPRESS OR IMPLIED WARRANTIES, INCLUDING, BUT NOT LIMITED TO, THE
// IMPLIED WARRANTIES OF MERCHANTABILITY AND FITNESS FOR A PARTICULAR PURPOSE
// ARE DISCLAIMED. IN NO EVENT SHALL THE COPYRIGHT OWNER OR CONTRIBUTORS BE
// LIABLE FOR ANY DIRECT, INDIRECT, INCIDENTAL, SPECIAL, EXEMPLARY, OR
// CONSEQUENTIAL DAMAGES (INCLUDING, BUT NOT LIMITED TO, PROCUREMENT OF
// SUBSTITUTE GOODS OR SERVICES; LOSS OF USE, DATA, OR PROFITS; OR BUSINESS
// INTERRUPTION) HOWEVER CAUSED AND ON ANY THEORY OF LIABILITY, WHETHER IN
// CONTRACT, STRICT LIABILITY, OR TORT (INCLUDING NEGLIGENCE OR OTHERWISE)
// ARISING IN ANY WAY OUT OF THE USE OF THIS SOFTWARE, EVEN IF ADVISED OF THE
// POSSIBILITY OF SUCH DAMAGE.


hold_switch_for_packet=1;

vc_buf_size = 16;


wait_for_tail_credit = 0;

//
// Router architecture
//
vc_allocator = separable_input_first; 
sw_allocator = separable_input_first;
alloc_iters  = 1;

credit_delay   = 2;
routing_delay  = 0;
vc_alloc_delay = 1;
sw_alloc_delay = 1;
st_final_delay = 1;

input_speedup     = 1;
output_speedup    = 1;
internal_speedup  = 1.0;


warmup_periods = 3;
sim_count          = 1;

sample_period  = 1000;  

routing_function = nca;
num_vcs     = 4;

priority = none;
traffic = transpose;


injection_rate = 0.50;
packet_size = 1;
injection_rate_uses_flits=1;

topology = fattree;

k  = 8;
n  = 4;
t = 1;

watch_file = watchfile.txt;
watch_out=-;
stats_out = examples/fattree_config_0.50_1_transpose.m;

END Configuration File: examples/fattree_config_0.50_1_transpose
Fat Tree
 k = 8 levels = 4
 each switch - total radix =  16
 # of switches = 2048
 # of channels = 24576
 # of nodes ( size of network ) = 4096
 tapering factor = 1
0 | node5 | Enqueuing flit 1 (packet 1) at time 0.
0 | node8 | Enqueuing flit 2 (packet 2) at time 0.
0 | node9 | Enqueuing flit 3 (packet 3) at time 0.
0 | node11 | Enqueuing flit 4 (packet 4) at time 0.
0 | node12 | Enqueuing flit 5 (packet 5) at time 0.
0 | node13 | Enqueuing flit 6 (packet 6) at time 0.
0 | node14 | Enqueuing flit 7 (packet 7) at time 0.
0 | node15 | Enqueuing flit 8 (packet 8) at time 0.
0 | node18 | Enqueuing flit 9 (packet 9) at time 0.
0 | node19 | Enqueuing flit 10 (packet 10) at time 0.
0 | traffic_manager | Finding output VC for flit 1:
0 | traffic_manager |   Selected output VC 0.
0 | node5 | Generating lookahead routing info for flit 1.
0 | node5 | Injecting flit 1 into subnet 0 at time 0 with priority 0.
0 | traffic_manager | Finding output VC for flit 2:
0 | traffic_manager |   Selected output VC 0.
0 | node8 | Generating lookahead routing info for flit 2.
0 | node8 | Injecting flit 2 into subnet 0 at time 0 with priority 0.
0 | traffic_manager | Finding output VC for flit 3:
0 | traffic_manager |   Selected output VC 0.
0 | node9 | Generating lookahead routing info for flit 3.
0 | node9 | Injecting flit 3 into subnet 0 at time 0 with priority 0.
0 | traffic_manager | Finding output VC for flit 4:
0 | traffic_manager |   Selected output VC 0.
0 | node11 | Generating lookahead routing info for flit 4.
0 | node11 | Injecting flit 4 into subnet 0 at time 0 with priority 0.
0 | traffic_manager | Finding output VC for flit 5:
0 | traffic_manager |   Selected output VC 0.
0 | node12 | Generating lookahead routing info for flit 5.
0 | node12 | Injecting flit 5 into subnet 0 at time 0 with priority 0.
0 | traffic_manager | Finding output VC for flit 6:
0 | traffic_manager |   Selected output VC 0.
0 | node13 | Generating lookahead routing info for flit 6.
0 | node13 | Injecting flit 6 into subnet 0 at time 0 with priority 0.
0 | traffic_manager | Finding output VC for flit 7:
0 | traffic_manager |   Selected output VC 0.
0 | node14 | Generating lookahead routing info for flit 7.
0 | node14 | Injecting flit 7 into subnet 0 at time 0 with priority 0.
0 | traffic_manager | Finding output VC for flit 8:
0 | traffic_manager |   Selected output VC 0.
0 | node15 | Generating lookahead routing info for flit 8.
0 | node15 | Injecting flit 8 into subnet 0 at time 0 with priority 0.
0 | traffic_manager | Finding output VC for flit 9:
0 | traffic_manager |   Selected output VC 0.
0 | node18 | Generating lookahead routing info for flit 9.
0 | node18 | Injecting flit 9 into subnet 0 at time 0 with priority 0.
0 | traffic_manager | Finding output VC for flit 10:
0 | traffic_manager |   Selected output VC 0.
0 | node19 | Generating lookahead routing info for flit 10.
0 | node19 | Injecting flit 10 into subnet 0 at time 0 with priority 0.
1 | network_0/network_0_fchan_ingress5 | Beginning channel traversal for flit 1 with delay 1.
1 | network_0/network_0_fchan_ingress8 | Beginning channel traversal for flit 2 with delay 1.
1 | network_0/network_0_fchan_ingress9 | Beginning channel traversal for flit 3 with delay 1.
1 | network_0/network_0_fchan_ingress11 | Beginning channel traversal for flit 4 with delay 1.
1 | network_0/network_0_fchan_ingress12 | Beginning channel traversal for flit 5 with delay 1.
1 | network_0/network_0_fchan_ingress13 | Beginning channel traversal for flit 6 with delay 1.
1 | network_0/network_0_fchan_ingress14 | Beginning channel traversal for flit 7 with delay 1.
1 | network_0/network_0_fchan_ingress15 | Beginning channel traversal for flit 8 with delay 1.
1 | network_0/network_0_fchan_ingress18 | Beginning channel traversal for flit 9 with delay 1.
1 | network_0/network_0_fchan_ingress19 | Beginning channel traversal for flit 10 with delay 1.
1 | network_0/network_0_fchan_ingress5 | Completed channel traversal for flit 1.
1 | network_0/network_0_fchan_ingress8 | Completed channel traversal for flit 2.
1 | network_0/network_0_fchan_ingress9 | Completed channel traversal for flit 3.
1 | network_0/network_0_fchan_ingress11 | Completed channel traversal for flit 4.
1 | network_0/network_0_fchan_ingress12 | Completed channel traversal for flit 5.
1 | network_0/network_0_fchan_ingress13 | Completed channel traversal for flit 6.
1 | network_0/network_0_fchan_ingress14 | Completed channel traversal for flit 7.
1 | network_0/network_0_fchan_ingress15 | Completed channel traversal for flit 8.
1 | network_0/network_0_fchan_ingress18 | Completed channel traversal for flit 9.
1 | network_0/network_0_fchan_ingress19 | Completed channel traversal for flit 10.
2 | network_0/router_level3_0 | Received flit 1 from channel at input 5.
2 | network_0/router_level3_1 | Received flit 2 from channel at input 0.
2 | network_0/router_level3_1 | Received flit 3 from channel at input 1.
2 | network_0/router_level3_1 | Received flit 4 from channel at input 3.
2 | network_0/router_level3_1 | Received flit 5 from channel at input 4.
2 | network_0/router_level3_1 | Received flit 6 from channel at input 5.
2 | network_0/router_level3_1 | Received flit 7 from channel at input 6.
2 | network_0/router_level3_1 | Received flit 8 from channel at input 7.
2 | network_0/router_level3_2 | Received flit 9 from channel at input 2.
2 | network_0/router_level3_2 | Received flit 10 from channel at input 3.
2 | network_0/router_level3_0 | Adding flit 1 to VC 0 at input 5 (state: idle, empty).
2 | network_0/router_level3_0 | Using precomputed lookahead routing information for VC 0 at input 5 (front: 1).
2 | network_0/router_level3_0/buf_5/vc_0 | Changing state from idle to vc_alloc.
2 | network_0/router_level3_0 | Beginning VC allocation for VC 0 at input 5 (front: 1).
2 | network_0/router_level3_0 |   Requesting VC 0 at output 10 (in_pri: 0, out_pri: 0).
2 | network_0/router_level3_0 |   Requesting VC 1 at output 10 (in_pri: 0, out_pri: 0).
2 | network_0/router_level3_0 |   Requesting VC 2 at output 10 (in_pri: 0, out_pri: 0).
2 | network_0/router_level3_0 |   Requesting VC 3 at output 10 (in_pri: 0, out_pri: 0).
2 | network_0/router_level3_0/vc_allocator | Input requests = [ 16 -> [ 60@0 61@0 62@0 63@0 ]  20 -> [ 40@0 41@0 42@0 43@0 ]  ], output requests = [ 40 -> [ 20@0 ]  41 -> [ 20@0 ]  42 -> [ 20@0 ]  43 -> [ 20@0 ]  60 -> [ 16@0 ]  61 -> [ 16@0 ]  62 -> [ 16@0 ]  63 -> [ 16@0 ]  ].
2 | network_0/router_level3_0/vc_allocator | Input grants = [ 16 -> 60  20 -> 40  ], output grants = [ 40 -> 20  60 -> 16  ].
2 | network_0/router_level3_0 | Assigning VC 0 at output 10 to VC 0 at input 5.
2 | network_0/router_level3_0 | Completed VC allocation for VC 0 at input 5 (front: 1).
2 | network_0/router_level3_0 |   Acquiring assigned VC 0 at output 10.
2 | network_0/router_level3_0/buf_5/vc_0 | Changing state from vc_alloc to active.
2 | network_0/router_level3_1 | Adding flit 2 to VC 0 at input 0 (state: idle, empty).
2 | network_0/router_level3_1 | Using precomputed lookahead routing information for VC 0 at input 0 (front: 2).
2 | network_0/router_level3_1/buf_0/vc_0 | Changing state from idle to vc_alloc.
2 | network_0/router_level3_1 | Adding flit 3 to VC 0 at input 1 (state: idle, empty).
2 | network_0/router_level3_1 | Using precomputed lookahead routing information for VC 0 at input 1 (front: 3).
2 | network_0/router_level3_1/buf_1/vc_0 | Changing state from idle to vc_alloc.
2 | network_0/router_level3_1 | Adding flit 4 to VC 0 at input 3 (state: idle, empty).
2 | network_0/router_level3_1 | Using precomputed lookahead routing information for VC 0 at input 3 (front: 4).
2 | network_0/router_level3_1/buf_3/vc_0 | Changing state from idle to vc_alloc.
2 | network_0/router_level3_1 | Adding flit 5 to VC 0 at input 4 (state: idle, empty).
2 | network_0/router_level3_1 | Using precomputed lookahead routing information for VC 0 at input 4 (front: 5).
2 | network_0/router_level3_1/buf_4/vc_0 | Changing state from idle to vc_alloc.
2 | network_0/router_level3_1 | Adding flit 6 to VC 0 at input 5 (state: idle, empty).
2 | network_0/router_level3_1 | Using precomputed lookahead routing information for VC 0 at input 5 (front: 6).
2 | network_0/router_level3_1/buf_5/vc_0 | Changing state from idle to vc_alloc.
2 | network_0/router_level3_1 | Adding flit 7 to VC 0 at input 6 (state: idle, empty).
2 | network_0/router_level3_1 | Using precomputed lookahead routing information for VC 0 at input 6 (front: 7).
2 | network_0/router_level3_1/buf_6/vc_0 | Changing state from idle to vc_alloc.
2 | network_0/router_level3_1 | Adding flit 8 to VC 0 at input 7 (state: idle, empty).
2 | network_0/router_level3_1 | Using precomputed lookahead routing information for VC 0 at input 7 (front: 8).
2 | network_0/router_level3_1/buf_7/vc_0 | Changing state from idle to vc_alloc.
2 | network_0/router_level3_1 | Beginning VC allocation for VC 0 at input 0 (front: 2).
2 | network_0/router_level3_1 |   Requesting VC 0 at output 15 (in_pri: 0, out_pri: 0).
2 | network_0/router_level3_1 |   Requesting VC 1 at output 15 (in_pri: 0, out_pri: 0).
2 | network_0/router_level3_1 |   Requesting VC 2 at output 15 (in_pri: 0, out_pri: 0).
2 | network_0/router_level3_1 |   Requesting VC 3 at output 15 (in_pri: 0, out_pri: 0).
2 | network_0/router_level3_1 | Beginning VC allocation for VC 0 at input 1 (front: 3).
2 | network_0/router_level3_1 |   Requesting VC 0 at output 13 (in_pri: 0, out_pri: 0).
2 | network_0/router_level3_1 |   Requesting VC 1 at output 13 (in_pri: 0, out_pri: 0).
2 | network_0/router_level3_1 |   Requesting VC 2 at output 13 (in_pri: 0, out_pri: 0).
2 | network_0/router_level3_1 |   Requesting VC 3 at output 13 (in_pri: 0, out_pri: 0).
2 | network_0/router_level3_1 | Beginning VC allocation for VC 0 at input 3 (front: 4).
2 | network_0/router_level3_1 |   Requesting VC 0 at output 14 (in_pri: 0, out_pri: 0).
2 | network_0/router_level3_1 |   Requesting VC 1 at output 14 (in_pri: 0, out_pri: 0).
2 | network_0/router_level3_1 |   Requesting VC 2 at output 14 (in_pri: 0, out_pri: 0).
2 | network_0/router_level3_1 |   Requesting VC 3 at output 14 (in_pri: 0, out_pri: 0).
2 | network_0/router_level3_1 | Beginning VC allocation for VC 0 at input 4 (front: 5).
2 | network_0/router_level3_1 |   Requesting VC 0 at output 9 (in_pri: 0, out_pri: 0).
2 | network_0/router_level3_1 |   Requesting VC 1 at output 9 (in_pri: 0, out_pri: 0).
2 | network_0/router_level3_1 |   Requesting VC 2 at output 9 (in_pri: 0, out_pri: 0).
2 | network_0/router_level3_1 |   Requesting VC 3 at output 9 (in_pri: 0, out_pri: 0).
2 | network_0/router_level3_1 | Beginning VC allocation for VC 0 at input 5 (front: 6).
2 | network_0/router_level3_1 |   Requesting VC 0 at output 8 (in_pri: 0, out_pri: 0).
2 | network_0/router_level3_1 |   Requesting VC 1 at output 8 (in_pri: 0, out_pri: 0).
2 | network_0/router_level3_1 |   Requesting VC 2 at output 8 (in_pri: 0, out_pri: 0).
2 | network_0/router_level3_1 |   Requesting VC 3 at output 8 (in_pri: 0, out_pri: 0).
2 | network_0/router_level3_1 | Beginning VC allocation for VC 0 at input 6 (front: 7).
2 | network_0/router_level3_1 |   Requesting VC 0 at output 12 (in_pri: 0, out_pri: 0).
2 | network_0/router_level3_1 |   Requesting VC 1 at output 12 (in_pri: 0, out_pri: 0).
2 | network_0/router_level3_1 |   Requesting VC 2 at output 12 (in_pri: 0, out_pri: 0).
2 | network_0/router_level3_1 |   Requesting VC 3 at output 12 (in_pri: 0, out_pri: 0).
2 | network_0/router_level3_1 | Beginning VC allocation for VC 0 at input 7 (front: 8).
2 | network_0/router_level3_1 |   Requesting VC 0 at output 13 (in_pri: 0, out_pri: 0).
2 | network_0/router_level3_1 |   Requesting VC 1 at output 13 (in_pri: 0, out_pri: 0).
2 | network_0/router_level3_1 |   Requesting VC 2 at output 13 (in_pri: 0, out_pri: 0).
2 | network_0/router_level3_1 |   Requesting VC 3 at output 13 (in_pri: 0, out_pri: 0).
2 | network_0/router_level3_1/vc_allocator | Input requests = [ 0 -> [ 60@0 61@0 62@0 63@0 ]  4 -> [ 52@0 53@0 54@0 55@0 ]  12 -> [ 56@0 57@0 58@0 59@0 ]  16 -> [ 36@0 37@0 38@0 39@0 ]  20 -> [ 32@0 33@0 34@0 35@0 ]  24 -> [ 48@0 49@0 50@0 51@0 ]  28 -> [ 52@0 53@0 54@0 55@0 ]  ], output requests = [ 32 -> [ 20@0 ]  33 -> [ 20@0 ]  34 -> [ 20@0 ]  35 -> [ 20@0 ]  36 -> [ 16@0 ]  37 -> [ 16@0 ]  38 -> [ 16@0 ]  39 -> [ 16@0 ]  48 -> [ 24@0 ]  49 -> [ 24@0 ]  50 -> [ 24@0 ]  51 -> [ 24@0 ]  52 -> [ 4@0 28@0 ]  53 -> [ 4@0 28@0 ]  54 -> [ 4@0 28@0 ]  55 -> [ 4@0 28@0 ]  56 -> [ 12@0 ]  57 -> [ 12@0 ]  58 -> [ 12@0 ]  59 -> [ 12@0 ]  60 -> [ 0@0 ]  61 -> [ 0@0 ]  62 -> [ 0@0 ]  63 -> [ 0@0 ]  ].
2 | network_0/router_level3_1/vc_allocator | Input grants = [ 0 -> 60  4 -> 52  12 -> 56  16 -> 36  20 -> 32  24 -> 48  ], output grants = [ 32 -> 20  36 -> 16  48 -> 24  52 -> 4  56 -> 12  60 -> 0  ].
2 | network_0/router_level3_1 | Assigning VC 0 at output 15 to VC 0 at input 0.
2 | network_0/router_level3_1 | Assigning VC 0 at output 13 to VC 0 at input 1.
2 | network_0/router_level3_1 | Assigning VC 0 at output 14 to VC 0 at input 3.
2 | network_0/router_level3_1 | Assigning VC 0 at output 9 to VC 0 at input 4.
2 | network_0/router_level3_1 | Assigning VC 0 at output 8 to VC 0 at input 5.
2 | network_0/router_level3_1 | Assigning VC 0 at output 12 to VC 0 at input 6.
2 | network_0/router_level3_1 | VC allocation failed for VC 0 at input 7.
2 | network_0/router_level3_1 | Completed VC allocation for VC 0 at input 0 (front: 2).
2 | network_0/router_level3_1 |   Acquiring assigned VC 0 at output 15.
2 | network_0/router_level3_1/buf_0/vc_0 | Changing state from vc_alloc to active.
2 | network_0/router_level3_1 | Completed VC allocation for VC 0 at input 1 (front: 3).
2 | network_0/router_level3_1 |   Acquiring assigned VC 0 at output 13.
2 | network_0/router_level3_1/buf_1/vc_0 | Changing state from vc_alloc to active.
2 | network_0/router_level3_1 | Completed VC allocation for VC 0 at input 3 (front: 4).
2 | network_0/router_level3_1 |   Acquiring assigned VC 0 at output 14.
2 | network_0/router_level3_1/buf_3/vc_0 | Changing state from vc_alloc to active.
2 | network_0/router_level3_1 | Completed VC allocation for VC 0 at input 4 (front: 5).
2 | network_0/router_level3_1 |   Acquiring assigned VC 0 at output 9.
2 | network_0/router_level3_1/buf_4/vc_0 | Changing state from vc_alloc to active.
2 | network_0/router_level3_1 | Completed VC allocation for VC 0 at input 5 (front: 6).
2 | network_0/router_level3_1 |   Acquiring assigned VC 0 at output 8.
2 | network_0/router_level3_1/buf_5/vc_0 | Changing state from vc_alloc to active.
2 | network_0/router_level3_1 | Completed VC allocation for VC 0 at input 6 (front: 7).
2 | network_0/router_level3_1 |   Acquiring assigned VC 0 at output 12.
2 | network_0/router_level3_1/buf_6/vc_0 | Changing state from vc_alloc to active.
2 | network_0/router_level3_1 | Completed VC allocation for VC 0 at input 7 (front: 8).
2 | network_0/router_level3_1 |   No output VC allocated.
2 | network_0/router_level3_2 | Adding flit 9 to VC 0 at input 2 (state: idle, empty).
2 | network_0/router_level3_2 | Using precomputed lookahead routing information for VC 0 at input 2 (front: 9).
2 | network_0/router_level3_2/buf_2/vc_0 | Changing state from idle to vc_alloc.
2 | network_0/router_level3_2 | Adding flit 10 to VC 0 at input 3 (state: idle, empty).
2 | network_0/router_level3_2 | Using precomputed lookahead routing information for VC 0 at input 3 (front: 10).
2 | network_0/router_level3_2/buf_3/vc_0 | Changing state from idle to vc_alloc.
2 | network_0/router_level3_2 | Beginning VC allocation for VC 0 at input 2 (front: 9).
2 | network_0/router_level3_2 |   Requesting VC 0 at output 11 (in_pri: 0, out_pri: 0).
2 | network_0/router_level3_2 |   Requesting VC 1 at output 11 (in_pri: 0, out_pri: 0).
2 | network_0/router_level3_2 |   Requesting VC 2 at output 11 (in_pri: 0, out_pri: 0).
2 | network_0/router_level3_2 |   Requesting VC 3 at output 11 (in_pri: 0, out_pri: 0).
2 | network_0/router_level3_2 | Beginning VC allocation for VC 0 at input 3 (front: 10).
2 | network_0/router_level3_2 |   Requesting VC 0 at output 11 (in_pri: 0, out_pri: 0).
2 | network_0/router_level3_2 |   Requesting VC 1 at output 11 (in_pri: 0, out_pri: 0).
2 | network_0/router_level3_2 |   Requesting VC 2 at output 11 (in_pri: 0, out_pri: 0).
2 | network_0/router_level3_2 |   Requesting VC 3 at output 11 (in_pri: 0, out_pri: 0).
2 | network_0/router_level3_2/vc_allocator | Input requests = [ 8 -> [ 44@0 45@0 46@0 47@0 ]  12 -> [ 44@0 45@0 46@0 47@0 ]  16 -> [ 48@0 49@0 50@0 51@0 ]  20 -> [ 40@0 41@0 42@0 43@0 ]  24 -> [ 52@0 53@0 54@0 55@0 ]  28 -> [ 48@0 49@0 50@0 51@0 ]  ], output requests = [ 40 -> [ 20@0 ]  41 -> [ 20@0 ]  42 -> [ 20@0 ]  43 -> [ 20@0 ]  44 -> [ 8@0 12@0 ]  45 -> [ 8@0 12@0 ]  46 -> [ 8@0 12@0 ]  47 -> [ 8@0 12@0 ]  48 -> [ 16@0 28@0 ]  49 -> [ 16@0 28@0 ]  50 -> [ 16@0 28@0 ]  51 -> [ 16@0 28@0 ]  52 -> [ 24@0 ]  53 -> [ 24@0 ]  54 -> [ 24@0 ]  55 -> [ 24@0 ]  ].
2 | network_0/router_level3_2/vc_allocator | Input grants = [ 8 -> 44  16 -> 48  20 -> 40  24 -> 52  ], output grants = [ 40 -> 20  44 -> 8  48 -> 16  52 -> 24  ].
2 | network_0/router_level3_2 | Assigning VC 0 at output 11 to VC 0 at input 2.
2 | network_0/router_level3_2 | VC allocation failed for VC 0 at input 3.
2 | network_0/router_level3_2 | Completed VC allocation for VC 0 at input 2 (front: 9).
2 | network_0/router_level3_2 |   Acquiring assigned VC 0 at output 11.
2 | network_0/router_level3_2/buf_2/vc_0 | Changing state from vc_alloc to active.
2 | network_0/router_level3_2 | Completed VC allocation for VC 0 at input 3 (front: 10).
2 | network_0/router_level3_2 |   No output VC allocated.
3 | network_0/router_level3_0 | Beginning switch allocation for VC 0 at input 5 (front: 1).
3 | network_0/router_level3_0 |   Requesting output 10.0 (non-spec, pri: 0).
3 | network_0/router_level3_0/sw_allocator | Input requests = [ 4 -> [ 15@0 ]  5 -> [ 10@0 ]  ], output requests = [ 10 -> [ 5@0 ]  15 -> [ 4@0 ]  ].
3 | network_0/router_level3_0/sw_allocator | Input grants = [ 4 -> 15  5 -> 10  ], output grants = [ 10 -> 5  15 -> 4  ].
3 | network_0/router_level3_0 | Assigning output 10.0 to VC 0 at input 5.0.
3 | network_0/router_level3_0 | Completed switch allocation for VC 0 at input 5 (front: 1).
3 | network_0/router_level3_0 |   Scheduling switch connection from input 5.0 to output 10.0.
3 | network_0/router_level3_0 | Updating lookahead routing information for flit 1.
3 | network_0/router_level3_1 | Beginning VC allocation for VC 0 at input 7 (front: 8).
3 | network_0/router_level3_1 |   VC 0 at output 13 is in use by VC 0 at input 1 (front flit: 3).
3 | network_0/router_level3_1 |   Requesting VC 1 at output 13 (in_pri: 0, out_pri: 0).
3 | network_0/router_level3_1 |   Requesting VC 2 at output 13 (in_pri: 0, out_pri: 0).
3 | network_0/router_level3_1 |   Requesting VC 3 at output 13 (in_pri: 0, out_pri: 0).
3 | network_0/router_level3_1/vc_allocator | Input requests = [ 5 -> [ 44@0 45@0 46@0 47@0 ]  17 -> [ 53@0 54@0 55@0 ]  21 -> [ 40@0 41@0 42@0 43@0 ]  25 -> [ 33@0 34@0 35@0 ]  28 -> [ 53@0 54@0 55@0 ]  ], output requests = [ 33 -> [ 25@0 ]  34 -> [ 25@0 ]  35 -> [ 25@0 ]  40 -> [ 21@0 ]  41 -> [ 21@0 ]  42 -> [ 21@0 ]  43 -> [ 21@0 ]  44 -> [ 5@0 ]  45 -> [ 5@0 ]  46 -> [ 5@0 ]  47 -> [ 5@0 ]  53 -> [ 17@0 28@0 ]  54 -> [ 17@0 28@0 ]  55 -> [ 17@0 28@0 ]  ].
3 | network_0/router_level3_1/vc_allocator | Input grants = [ 5 -> 44  17 -> 53  21 -> 40  25 -> 33  ], output grants = [ 33 -> 25  40 -> 21  44 -> 5  53 -> 17  ].
3 | network_0/router_level3_1 | VC allocation failed for VC 0 at input 7.
3 | network_0/router_level3_1 | Beginning switch allocation for VC 0 at input 0 (front: 2).
3 | network_0/router_level3_1 |   Requesting output 15.0 (non-spec, pri: 0).
3 | network_0/router_level3_1 | Beginning switch allocation for VC 0 at input 1 (front: 3).
3 | network_0/router_level3_1 |   Requesting output 13.0 (non-spec, pri: 0).
3 | network_0/router_level3_1 | Beginning switch allocation for VC 0 at input 3 (front: 4).
3 | network_0/router_level3_1 |   Requesting output 14.0 (non-spec, pri: 0).
3 | network_0/router_level3_1 | Beginning switch allocation for VC 0 at input 4 (front: 5).
3 | network_0/router_level3_1 |   Requesting output 9.0 (non-spec, pri: 0).
3 | network_0/router_level3_1 | Beginning switch allocation for VC 0 at input 5 (front: 6).
3 | network_0/router_level3_1 |   Requesting output 8.0 (non-spec, pri: 0).
3 | network_0/router_level3_1 | Beginning switch allocation for VC 0 at input 6 (front: 7).
3 | network_0/router_level3_1 |   Requesting output 12.0 (non-spec, pri: 0).
3 | network_0/router_level3_1/sw_allocator | Input requests = [ 0 -> [ 15@0 ]  1 -> [ 13@0 ]  3 -> [ 14@0 ]  4 -> [ 9@0 ]  5 -> [ 8@0 ]  6 -> [ 12@0 ]  ], output requests = [ 8 -> [ 5@0 ]  9 -> [ 4@0 ]  12 -> [ 6@0 ]  13 -> [ 1@0 ]  14 -> [ 3@0 ]  15 -> [ 0@0 ]  ].
3 | network_0/router_level3_1/sw_allocator | Input grants = [ 0 -> 15  1 -> 13  3 -> 14  4 -> 9  5 -> 8  6 -> 12  ], output grants = [ 8 -> 5  9 -> 4  12 -> 6  13 -> 1  14 -> 3  15 -> 0  ].
3 | network_0/router_level3_1 | Assigning output 15.0 to VC 0 at input 0.0.
3 | network_0/router_level3_1 | Assigning output 13.0 to VC 0 at input 1.0.
3 | network_0/router_level3_1 | Assigning output 14.0 to VC 0 at input 3.0.
3 | network_0/router_level3_1 | Assigning output 9.0 to VC 0 at input 4.0.
3 | network_0/router_level3_1 | Assigning output 8.0 to VC 0 at input 5.0.
3 | network_0/router_level3_1 | Assigning output 12.0 to VC 0 at input 6.0.
3 | network_0/router_level3_1 | Completed VC allocation for VC 0 at input 7 (front: 8).
3 | network_0/router_level3_1 |   No output VC allocated.
3 | network_0/router_level3_1 | Completed switch allocation for VC 0 at input 0 (front: 2).
3 | network_0/router_level3_1 |   Scheduling switch connection from input 0.0 to output 15.0.
3 | network_0/router_level3_1 | Updating lookahead routing information for flit 2.
3 | network_0/router_level3_1 | Completed switch allocation for VC 0 at input 1 (front: 3).
3 | network_0/router_level3_1 |   Scheduling switch connection from input 1.0 to output 13.0.
3 | network_0/router_level3_1 | Updating lookahead routing information for flit 3.
3 | network_0/router_level3_1 | Completed switch allocation for VC 0 at input 3 (front: 4).
3 | network_0/router_level3_1 |   Scheduling switch connection from input 3.0 to output 14.0.
3 | network_0/router_level3_1 | Updating lookahead routing information for flit 4.
3 | network_0/router_level3_1 | Completed switch allocation for VC 0 at input 4 (front: 5).
3 | network_0/router_level3_1 |   Scheduling switch connection from input 4.0 to output 9.0.
3 | network_0/router_level3_1 | Updating lookahead routing information for flit 5.
3 | network_0/router_level3_1 | Completed switch allocation for VC 0 at input 5 (front: 6).
3 | network_0/router_level3_1 |   Scheduling switch connection from input 5.0 to output 8.0.
3 | network_0/router_level3_1 | Updating lookahead routing information for flit 6.
3 | network_0/router_level3_1 | Completed switch allocation for VC 0 at input 6 (front: 7).
3 | network_0/router_level3_1 |   Scheduling switch connection from input 6.0 to output 12.0.
3 | network_0/router_level3_1 | Updating lookahead routing information for flit 7.
3 | network_0/router_level3_2 | Beginning VC allocation for VC 0 at input 3 (front: 10).
3 | network_0/router_level3_2 |   VC 0 at output 11 is in use by VC 0 at input 2 (front flit: 9).
3 | network_0/router_level3_2 |   Requesting VC 1 at output 11 (in_pri: 0, out_pri: 0).
3 | network_0/router_level3_2 |   Requesting VC 2 at output 11 (in_pri: 0, out_pri: 0).
3 | network_0/router_level3_2 |   Requesting VC 3 at output 11 (in_pri: 0, out_pri: 0).
3 | network_0/router_level3_2/vc_allocator | Input requests = [ 0 -> [ 32@0 33@0 34@0 35@0 ]  9 -> [ 56@0 57@0 58@0 59@0 ]  12 -> [ 45@0 46@0 47@0 ]  25 -> [ 41@0 42@0 43@0 ]  28 -> [ 49@0 50@0 51@0 ]  ], output requests = [ 32 -> [ 0@0 ]  33 -> [ 0@0 ]  34 -> [ 0@0 ]  35 -> [ 0@0 ]  41 -> [ 25@0 ]  42 -> [ 25@0 ]  43 -> [ 25@0 ]  45 -> [ 12@0 ]  46 -> [ 12@0 ]  47 -> [ 12@0 ]  49 -> [ 28@0 ]  50 -> [ 28@0 ]  51 -> [ 28@0 ]  56 -> [ 9@0 ]  57 -> [ 9@0 ]  58 -> [ 9@0 ]  59 -> [ 9@0 ]  ].
3 | network_0/router_level3_2/vc_allocator | Input grants = [ 0 -> 32  9 -> 56  12 -> 45  25 -> 41  28 -> 49  ], output grants = [ 32 -> 0  41 -> 25  45 -> 12  49 -> 28  56 -> 9  ].
3 | network_0/router_level3_2 | Assigning VC 1 at output 11 to VC 0 at input 3.
3 | network_0/router_level3_2 | Beginning switch allocation for VC 0 at input 2 (front: 9).
3 | network_0/router_level3_2 |   Requesting output 11.0 (non-spec, pri: 0).
3 | network_0/router_level3_2/sw_allocator | Input requests = [ 2 -> [ 11@0 ]  4 -> [ 12@0 ]  5 -> [ 10@0 ]  6 -> [ 13@0 ]  ], output requests = [ 10 -> [ 5@0 ]  11 -> [ 2@0 ]  12 -> [ 4@0 ]  13 -> [ 6@0 ]  ].
3 | network_0/router_level3_2/sw_allocator | Input grants = [ 2 -> 11  4 -> 12  5 -> 10  6 -> 13  ], output grants = [ 10 -> 5  11 -> 2  12 -> 4  13 -> 6  ].
3 | network_0/router_level3_2 | Assigning output 11.0 to VC 0 at input 2.0.
3 | network_0/router_level3_2 | Completed VC allocation for VC 0 at input 3 (front: 10).
3 | network_0/router_level3_2 |   Acquiring assigned VC 1 at output 11.
3 | network_0/router_level3_2/buf_3/vc_0 | Changing state from vc_alloc to active.
3 | network_0/router_level3_2 | Completed switch allocation for VC 0 at input 2 (front: 9).
3 | network_0/router_level3_2 |   Scheduling switch connection from input 2.0 to output 11.0.
3 | network_0/router_level3_2 | Updating lookahead routing information for flit 9.
4 | network_0/router_level3_0 | Beginning crossbar traversal for flit 1 from input 5.0 to output 10.0.
4 | network_0/router_level3_0 | Completed crossbar traversal for flit 1 from input 5.0 to output 10.0.
4 | network_0/router_level3_0 | Buffering flit 1 at output 10.
4 | network_0/router_level3_1 | Beginning VC allocation for VC 0 at input 7 (front: 8).
4 | network_0/router_level3_1 |   Requesting VC 0 at output 13 (in_pri: 0, out_pri: 0).
4 | network_0/router_level3_1 |   VC 1 at output 13 is in use by VC 1 at input 4 (front flit: 1998).
4 | network_0/router_level3_1 |   Requesting VC 2 at output 13 (in_pri: 0, out_pri: 0).
4 | network_0/router_level3_1 |   Requesting VC 3 at output 13 (in_pri: 0, out_pri: 0).
4 | network_0/router_level3_1/vc_allocator | Input requests = [ 1 -> [ 60@0 61@0 62@0 63@0 ]  6 -> [ 45@0 46@0 47@0 ]  22 -> [ 48@0 49@0 50@0 51@0 ]  28 -> [ 52@0 54@0 55@0 ]  ], output requests = [ 45 -> [ 6@0 ]  46 -> [ 6@0 ]  47 -> [ 6@0 ]  48 -> [ 22@0 ]  49 -> [ 22@0 ]  50 -> [ 22@0 ]  51 -> [ 22@0 ]  52 -> [ 28@0 ]  54 -> [ 28@0 ]  55 -> [ 28@0 ]  60 -> [ 1@0 ]  61 -> [ 1@0 ]  62 -> [ 1@0 ]  63 -> [ 1@0 ]  ].
4 | network_0/router_level3_1/vc_allocator | Input grants = [ 1 -> 60  6 -> 45  22 -> 48  28 -> 52  ], output grants = [ 45 -> 6  48 -> 22  52 -> 28  60 -> 1  ].
4 | network_0/router_level3_1 | Assigning VC 0 at output 13 to VC 0 at input 7.
4 | network_0/router_level3_1 | Beginning crossbar traversal for flit 2 from input 0.0 to output 15.0.
4 | network_0/router_level3_1 | Beginning crossbar traversal for flit 3 from input 1.0 to output 13.0.
4 | network_0/router_level3_1 | Beginning crossbar traversal for flit 4 from input 3.0 to output 14.0.
4 | network_0/router_level3_1 | Beginning crossbar traversal for flit 5 from input 4.0 to output 9.0.
4 | network_0/router_level3_1 | Beginning crossbar traversal for flit 6 from input 5.0 to output 8.0.
4 | network_0/router_level3_1 | Beginning crossbar traversal for flit 7 from input 6.0 to output 12.0.
4 | network_0/router_level3_1 | Completed VC allocation for VC 0 at input 7 (front: 8).
4 | network_0/router_level3_1 |   Acquiring assigned VC 0 at output 13.
4 | network_0/router_level3_1/buf_7/vc_0 | Changing state from vc_alloc to active.
4 | network_0/router_level3_1 | Completed crossbar traversal for flit 2 from input 0.0 to output 15.0.
4 | network_0/router_level3_1 | Buffering flit 2 at output 15.
4 | network_0/router_level3_1 | Completed crossbar traversal for flit 3 from input 1.0 to output 13.0.
4 | network_0/router_level3_1 | Buffering flit 3 at output 13.
4 | network_0/router_level3_1 | Completed crossbar traversal for flit 4 from input 3.0 to output 14.0.
4 | network_0/router_level3_1 | Buffering flit 4 at output 14.
4 | network_0/router_level3_1 | Completed crossbar traversal for flit 5 from input 4.0 to output 9.0.
4 | network_0/router_level3_1 | Buffering flit 5 at output 9.
4 | network_0/router_level3_1 | Completed crossbar traversal for flit 6 from input 5.0 to output 8.0.
4 | network_0/router_level3_1 | Buffering flit 6 at output 8.
4 | network_0/router_level3_1 | Completed crossbar traversal for flit 7 from input 6.0 to output 12.0.
4 | network_0/router_level3_1 | Buffering flit 7 at output 12.
4 | network_0/router_level3_2 | Beginning switch allocation for VC 0 at input 3 (front: 10).
4 | network_0/router_level3_2 |   Requesting output 11.0 (non-spec, pri: 0).
4 | network_0/router_level3_2/sw_allocator | Input requests = [ 0 -> [ 8@0 ]  2 -> [ 14@0 ]  3 -> [ 11@0 ]  6 -> [ 10@0 ]  7 -> [ 12@0 ]  ], output requests = [ 8 -> [ 0@0 ]  10 -> [ 6@0 ]  11 -> [ 3@0 ]  12 -> [ 7@0 ]  14 -> [ 2@0 ]  ].
4 | network_0/router_level3_2/sw_allocator | Input grants = [ 0 -> 8  2 -> 14  3 -> 11  6 -> 10  7 -> 12  ], output grants = [ 8 -> 0  10 -> 6  11 -> 3  12 -> 7  14 -> 2  ].
4 | network_0/router_level3_2 | Assigning output 11.0 to VC 0 at input 3.0.
4 | network_0/router_level3_2 | Beginning crossbar traversal for flit 9 from input 2.0 to output 11.0.
4 | network_0/router_level3_2 | Completed switch allocation for VC 0 at input 3 (front: 10).
4 | network_0/router_level3_2 |   Scheduling switch connection from input 3.0 to output 11.0.
4 | network_0/router_level3_2 | Updating lookahead routing information for flit 10.
4 | network_0/router_level3_2 | Completed crossbar traversal for flit 9 from input 2.0 to output 11.0.
4 | network_0/router_level3_2 | Buffering flit 9 at output 11.
4 | network_0/router_level3_0 | Sending flit 1 to channel at output 10.
4 | network_0/router_level3_1 | Sending flit 6 to channel at output 8.
4 | network_0/router_level3_1 | Sending flit 5 to channel at output 9.
4 | network_0/router_level3_1 | Sending flit 7 to channel at output 12.
4 | network_0/router_level3_1 | Sending flit 3 to channel at output 13.
4 | network_0/router_level3_1 | Sending flit 4 to channel at output 14.
4 | network_0/router_level3_1 | Sending flit 2 to channel at output 15.
4 | network_0/router_level3_2 | Sending flit 9 to channel at output 11.
5 | network_0/network_0_fchan_20482 | Beginning channel traversal for flit 1 with delay 1.
5 | network_0/network_0_fchan_20488 | Beginning channel traversal for flit 6 with delay 1.
5 | network_0/network_0_fchan_20489 | Beginning channel traversal for flit 5 with delay 1.
5 | network_0/network_0_fchan_20492 | Beginning channel traversal for flit 7 with delay 1.
5 | network_0/network_0_fchan_20493 | Beginning channel traversal for flit 3 with delay 1.
5 | network_0/network_0_fchan_20494 | Beginning channel traversal for flit 4 with delay 1.
5 | network_0/network_0_fchan_20495 | Beginning channel traversal for flit 2 with delay 1.
5 | network_0/network_0_fchan_20499 | Beginning channel traversal for flit 9 with delay 1.
5 | network_0/router_level3_1 | Beginning switch allocation for VC 0 at input 7 (front: 8).
5 | network_0/router_level3_1 |   Requesting output 13.0 (non-spec, pri: 0).
5 | network_0/router_level3_1/sw_allocator | Input requests = [ 0 -> [ 15@0 ]  1 -> [ 11@0 ]  5 -> [ 12@0 ]  7 -> [ 13@0 ]  ], output requests = [ 11 -> [ 1@0 ]  12 -> [ 5@0 ]  13 -> [ 7@0 ]  15 -> [ 0@0 ]  ].
5 | network_0/router_level3_1/sw_allocator | Input grants = [ 0 -> 15  1 -> 11  5 -> 12  7 -> 13  ], output grants = [ 11 -> 1  12 -> 5  13 -> 7  15 -> 0  ].
5 | network_0/router_level3_1 | Assigning output 13.0 to VC 0 at input 7.0.
5 | network_0/router_level3_1 | Completed switch allocation for VC 0 at input 7 (front: 8).
5 | network_0/router_level3_1 |   Scheduling switch connection from input 7.0 to output 13.0.
5 | network_0/router_level3_1 | Updating lookahead routing information for flit 8.
5 | network_0/router_level3_2 | Beginning crossbar traversal for flit 10 from input 3.0 to output 11.0.
5 | network_0/router_level3_2 | Completed crossbar traversal for flit 10 from input 3.0 to output 11.0.
5 | network_0/router_level3_2 | Buffering flit 10 at output 11.
5 | network_0/network_0_fchan_20482 | Completed channel traversal for flit 1.
5 | network_0/network_0_fchan_20488 | Completed channel traversal for flit 6.
5 | network_0/network_0_fchan_20489 | Completed channel traversal for flit 5.
5 | network_0/network_0_fchan_20492 | Completed channel traversal for flit 7.
5 | network_0/network_0_fchan_20493 | Completed channel traversal for flit 3.
5 | network_0/network_0_fchan_20494 | Completed channel traversal for flit 4.
5 | network_0/network_0_fchan_20495 | Completed channel traversal for flit 2.
5 | network_0/network_0_fchan_20499 | Completed channel traversal for flit 9.
5 | network_0/router_level3_2 | Sending flit 10 to channel at output 11.
6 | network_0/network_0_fchan_20499 | Beginning channel traversal for flit 10 with delay 1.
6 | network_0/router_level2_0 | Received flit 6 from channel at input 1.
6 | network_0/router_level2_1 | Received flit 5 from channel at input 1.
6 | network_0/router_level2_2 | Received flit 1 from channel at input 0.
6 | network_0/router_level2_3 | Received flit 9 from channel at input 2.
6 | network_0/router_level2_4 | Received flit 7 from channel at input 1.
6 | network_0/router_level2_5 | Received flit 3 from channel at input 1.
6 | network_0/router_level2_6 | Received flit 4 from channel at input 1.
6 | network_0/router_level2_7 | Received flit 2 from channel at input 1.
6 | network_0/router_level2_0 | Adding flit 6 to VC 0 at input 1 (state: idle, empty).
6 | network_0/router_level2_0 | Using precomputed lookahead routing information for VC 0 at input 1 (front: 6).
6 | network_0/router_level2_0/buf_1/vc_0 | Changing state from idle to vc_alloc.
6 | network_0/router_level2_0 | Beginning VC allocation for VC 0 at input 1 (front: 6).
6 | network_0/router_level2_0 |   Requesting VC 0 at output 14 (in_pri: 0, out_pri: 0).
6 | network_0/router_level2_0 |   Requesting VC 1 at output 14 (in_pri: 0, out_pri: 0).
6 | network_0/router_level2_0 |   Requesting VC 2 at output 14 (in_pri: 0, out_pri: 0).
6 | network_0/router_level2_0 |   Requesting VC 3 at output 14 (in_pri: 0, out_pri: 0).
6 | network_0/router_level2_0/vc_allocator | Input requests = [ 4 -> [ 56@0 57@0 58@0 59@0 ]  20 -> [ 36@0 37@0 38@0 39@0 ]  28 -> [ 44@0 45@0 46@0 47@0 ]  ], output requests = [ 36 -> [ 20@0 ]  37 -> [ 20@0 ]  38 -> [ 20@0 ]  39 -> [ 20@0 ]  44 -> [ 28@0 ]  45 -> [ 28@0 ]  46 -> [ 28@0 ]  47 -> [ 28@0 ]  56 -> [ 4@0 ]  57 -> [ 4@0 ]  58 -> [ 4@0 ]  59 -> [ 4@0 ]  ].
6 | network_0/router_level2_0/vc_allocator | Input grants = [ 4 -> 56  20 -> 36  28 -> 44  ], output grants = [ 36 -> 20  44 -> 28  56 -> 4  ].
6 | network_0/router_level2_0 | Assigning VC 0 at output 14 to VC 0 at input 1.
6 | network_0/router_level2_0 | Completed VC allocation for VC 0 at input 1 (front: 6).
6 | network_0/router_level2_0 |   Acquiring assigned VC 0 at output 14.
6 | network_0/router_level2_0/buf_1/vc_0 | Changing state from vc_alloc to active.
6 | network_0/router_level2_1 | Adding flit 5 to VC 0 at input 1 (state: idle, empty).
6 | network_0/router_level2_1 | Using precomputed lookahead routing information for VC 0 at input 1 (front: 5).
6 | network_0/router_level2_1/buf_1/vc_0 | Changing state from idle to vc_alloc.
6 | network_0/router_level2_1 | Beginning VC allocation for VC 0 at input 1 (front: 5).
6 | network_0/router_level2_1 |   Requesting VC 0 at output 14 (in_pri: 0, out_pri: 0).
6 | network_0/router_level2_1 |   Requesting VC 1 at output 14 (in_pri: 0, out_pri: 0).
6 | network_0/router_level2_1 |   Requesting VC 2 at output 14 (in_pri: 0, out_pri: 0).
6 | network_0/router_level2_1 |   Requesting VC 3 at output 14 (in_pri: 0, out_pri: 0).
6 | network_0/router_level2_1/vc_allocator | Input requests = [ 4 -> [ 56@0 57@0 58@0 59@0 ]  20 -> [ 48@0 49@0 50@0 51@0 ]  24 -> [ 32@0 33@0 34@0 35@0 ]  ], output requests = [ 32 -> [ 24@0 ]  33 -> [ 24@0 ]  34 -> [ 24@0 ]  35 -> [ 24@0 ]  48 -> [ 20@0 ]  49 -> [ 20@0 ]  50 -> [ 20@0 ]  51 -> [ 20@0 ]  56 -> [ 4@0 ]  57 -> [ 4@0 ]  58 -> [ 4@0 ]  59 -> [ 4@0 ]  ].
6 | network_0/router_level2_1/vc_allocator | Input grants = [ 4 -> 56  20 -> 48  24 -> 32  ], output grants = [ 32 -> 24  48 -> 20  56 -> 4  ].
6 | network_0/router_level2_1 | Assigning VC 0 at output 14 to VC 0 at input 1.
6 | network_0/router_level2_1 | Completed VC allocation for VC 0 at input 1 (front: 5).
6 | network_0/router_level2_1 |   Acquiring assigned VC 0 at output 14.
6 | network_0/router_level2_1/buf_1/vc_0 | Changing state from vc_alloc to active.
6 | network_0/router_level2_2 | Adding flit 1 to VC 0 at input 0 (state: idle, empty).
6 | network_0/router_level2_2 | Using precomputed lookahead routing information for VC 0 at input 0 (front: 1).
6 | network_0/router_level2_2/buf_0/vc_0 | Changing state from idle to vc_alloc.
6 | network_0/router_level2_2 | Beginning VC allocation for VC 0 at input 0 (front: 1).
6 | network_0/router_level2_2 |   Requesting VC 0 at output 15 (in_pri: 0, out_pri: 0).
6 | network_0/router_level2_2 |   Requesting VC 1 at output 15 (in_pri: 0, out_pri: 0).
6 | network_0/router_level2_2 |   Requesting VC 2 at output 15 (in_pri: 0, out_pri: 0).
6 | network_0/router_level2_2 |   Requesting VC 3 at output 15 (in_pri: 0, out_pri: 0).
6 | network_0/router_level2_2/vc_allocator | Input requests = [ 0 -> [ 60@0 61@0 62@0 63@0 ]  8 -> [ 56@0 57@0 58@0 59@0 ]  12 -> [ 56@0 57@0 58@0 59@0 ]  ], output requests = [ 56 -> [ 8@0 12@0 ]  57 -> [ 8@0 12@0 ]  58 -> [ 8@0 12@0 ]  59 -> [ 8@0 12@0 ]  60 -> [ 0@0 ]  61 -> [ 0@0 ]  62 -> [ 0@0 ]  63 -> [ 0@0 ]  ].
6 | network_0/router_level2_2/vc_allocator | Input grants = [ 0 -> 60  8 -> 56  ], output grants = [ 56 -> 8  60 -> 0  ].
6 | network_0/router_level2_2 | Assigning VC 0 at output 15 to VC 0 at input 0.
6 | network_0/router_level2_2 | Completed VC allocation for VC 0 at input 0 (front: 1).
6 | network_0/router_level2_2 |   Acquiring assigned VC 0 at output 15.
6 | network_0/router_level2_2/buf_0/vc_0 | Changing state from vc_alloc to active.
6 | network_0/router_level2_3 | Adding flit 9 to VC 0 at input 2 (state: idle, empty).
6 | network_0/router_level2_3 | Using precomputed lookahead routing information for VC 0 at input 2 (front: 9).
6 | network_0/router_level2_3/buf_2/vc_0 | Changing state from idle to vc_alloc.
6 | network_0/router_level2_3 | Beginning VC allocation for VC 0 at input 2 (front: 9).
6 | network_0/router_level2_3 |   Requesting VC 0 at output 14 (in_pri: 0, out_pri: 0).
6 | network_0/router_level2_3 |   Requesting VC 1 at output 14 (in_pri: 0, out_pri: 0).
6 | network_0/router_level2_3 |   Requesting VC 2 at output 14 (in_pri: 0, out_pri: 0).
6 | network_0/router_level2_3 |   Requesting VC 3 at output 14 (in_pri: 0, out_pri: 0).
6 | network_0/router_level2_3/vc_allocator | Input requests = [ 8 -> [ 56@0 57@0 58@0 59@0 ]  12 -> [ 56@0 57@0 58@0 59@0 ]  20 -> [ 56@0 57@0 58@0 59@0 ]  24 -> [ 44@0 45@0 46@0 47@0 ]  ], output requests = [ 44 -> [ 24@0 ]  45 -> [ 24@0 ]  46 -> [ 24@0 ]  47 -> [ 24@0 ]  56 -> [ 8@0 12@0 20@0 ]  57 -> [ 8@0 12@0 20@0 ]  58 -> [ 8@0 12@0 20@0 ]  59 -> [ 8@0 12@0 20@0 ]  ].
6 | network_0/router_level2_3/vc_allocator | Input grants = [ 8 -> 56  24 -> 44  ], output grants = [ 44 -> 24  56 -> 8  ].
6 | network_0/router_level2_3 | Assigning VC 0 at output 14 to VC 0 at input 2.
6 | network_0/router_level2_3 | Completed VC allocation for VC 0 at input 2 (front: 9).
6 | network_0/router_level2_3 |   Acquiring assigned VC 0 at output 14.
6 | network_0/router_level2_3/buf_2/vc_0 | Changing state from vc_alloc to active.
6 | network_0/router_level2_4 | Adding flit 7 to VC 0 at input 1 (state: idle, empty).
6 | network_0/router_level2_4 | Using precomputed lookahead routing information for VC 0 at input 1 (front: 7).
6 | network_0/router_level2_4/buf_1/vc_0 | Changing state from idle to vc_alloc.
6 | network_0/router_level2_4 | Beginning VC allocation for VC 0 at input 1 (front: 7).
6 | network_0/router_level2_4 |   Requesting VC 0 at output 12 (in_pri: 0, out_pri: 0).
6 | network_0/router_level2_4 |   Requesting VC 1 at output 12 (in_pri: 0, out_pri: 0).
6 | network_0/router_level2_4 |   Requesting VC 2 at output 12 (in_pri: 0, out_pri: 0).
6 | network_0/router_level2_4 |   Requesting VC 3 at output 12 (in_pri: 0, out_pri: 0).
6 | network_0/router_level2_4/vc_allocator | Input requests = [ 4 -> [ 48@0 49@0 50@0 51@0 ]  8 -> [ 40@0 41@0 42@0 43@0 ]  12 -> [ 32@0 33@0 34@0 35@0 ]  16 -> [ 40@0 41@0 42@0 43@0 ]  20 -> [ 36@0 37@0 38@0 39@0 ]  ], output requests = [ 32 -> [ 12@0 ]  33 -> [ 12@0 ]  34 -> [ 12@0 ]  35 -> [ 12@0 ]  36 -> [ 20@0 ]  37 -> [ 20@0 ]  38 -> [ 20@0 ]  39 -> [ 20@0 ]  40 -> [ 8@0 16@0 ]  41 -> [ 8@0 16@0 ]  42 -> [ 8@0 16@0 ]  43 -> [ 8@0 16@0 ]  48 -> [ 4@0 ]  49 -> [ 4@0 ]  50 -> [ 4@0 ]  51 -> [ 4@0 ]  ].
6 | network_0/router_level2_4/vc_allocator | Input grants = [ 4 -> 48  8 -> 40  12 -> 32  20 -> 36  ], output grants = [ 32 -> 12  36 -> 20  40 -> 8  48 -> 4  ].
6 | network_0/router_level2_4 | Assigning VC 0 at output 12 to VC 0 at input 1.
6 | network_0/router_level2_4 | Completed VC allocation for VC 0 at input 1 (front: 7).
6 | network_0/router_level2_4 |   Acquiring assigned VC 0 at output 12.
6 | network_0/router_level2_4/buf_1/vc_0 | Changing state from vc_alloc to active.
6 | network_0/router_level2_5 | Adding flit 3 to VC 0 at input 1 (state: idle, empty).
6 | network_0/router_level2_5 | Using precomputed lookahead routing information for VC 0 at input 1 (front: 3).
6 | network_0/router_level2_5/buf_1/vc_0 | Changing state from idle to vc_alloc.
6 | network_0/router_level2_5 | Beginning VC allocation for VC 0 at input 1 (front: 3).
6 | network_0/router_level2_5 |   Requesting VC 0 at output 13 (in_pri: 0, out_pri: 0).
6 | network_0/router_level2_5 |   Requesting VC 1 at output 13 (in_pri: 0, out_pri: 0).
6 | network_0/router_level2_5 |   Requesting VC 2 at output 13 (in_pri: 0, out_pri: 0).
6 | network_0/router_level2_5 |   Requesting VC 3 at output 13 (in_pri: 0, out_pri: 0).
6 | network_0/router_level2_5/vc_allocator | Input requests = [ 4 -> [ 52@0 53@0 54@0 55@0 ]  8 -> [ 44@0 45@0 46@0 47@0 ]  20 -> [ 56@0 57@0 58@0 59@0 ]  ], output requests = [ 44 -> [ 8@0 ]  45 -> [ 8@0 ]  46 -> [ 8@0 ]  47 -> [ 8@0 ]  52 -> [ 4@0 ]  53 -> [ 4@0 ]  54 -> [ 4@0 ]  55 -> [ 4@0 ]  56 -> [ 20@0 ]  57 -> [ 20@0 ]  58 -> [ 20@0 ]  59 -> [ 20@0 ]  ].
6 | network_0/router_level2_5/vc_allocator | Input grants = [ 4 -> 52  8 -> 44  20 -> 56  ], output grants = [ 44 -> 8  52 -> 4  56 -> 20  ].
6 | network_0/router_level2_5 | Assigning VC 0 at output 13 to VC 0 at input 1.
6 | network_0/router_level2_5 | Completed VC allocation for VC 0 at input 1 (front: 3).
6 | network_0/router_level2_5 |   Acquiring assigned VC 0 at output 13.
6 | network_0/router_level2_5/buf_1/vc_0 | Changing state from vc_alloc to active.
6 | network_0/router_level2_6 | Adding flit 4 to VC 0 at input 1 (state: idle, empty).
6 | network_0/router_level2_6 | Using precomputed lookahead routing information for VC 0 at input 1 (front: 4).
6 | network_0/router_level2_6/buf_1/vc_0 | Changing state from idle to vc_alloc.
6 | network_0/router_level2_6 | Beginning VC allocation for VC 0 at input 1 (front: 4).
6 | network_0/router_level2_6 |   Requesting VC 0 at output 11 (in_pri: 0, out_pri: 0).
6 | network_0/router_level2_6 |   Requesting VC 1 at output 11 (in_pri: 0, out_pri: 0).
6 | network_0/router_level2_6 |   Requesting VC 2 at output 11 (in_pri: 0, out_pri: 0).
6 | network_0/router_level2_6 |   Requesting VC 3 at output 11 (in_pri: 0, out_pri: 0).
6 | network_0/router_level2_6/vc_allocator | Input requests = [ 4 -> [ 44@0 45@0 46@0 47@0 ]  28 -> [ 56@0 57@0 58@0 59@0 ]  ], output requests = [ 44 -> [ 4@0 ]  45 -> [ 4@0 ]  46 -> [ 4@0 ]  47 -> [ 4@0 ]  56 -> [ 28@0 ]  57 -> [ 28@0 ]  58 -> [ 28@0 ]  59 -> [ 28@0 ]  ].
6 | network_0/router_level2_6/vc_allocator | Input grants = [ 4 -> 44  28 -> 56  ], output grants = [ 44 -> 4  56 -> 28  ].
6 | network_0/router_level2_6 | Assigning VC 0 at output 11 to VC 0 at input 1.
6 | network_0/router_level2_6 | Completed VC allocation for VC 0 at input 1 (front: 4).
6 | network_0/router_level2_6 |   Acquiring assigned VC 0 at output 11.
6 | network_0/router_level2_6/buf_1/vc_0 | Changing state from vc_alloc to active.
6 | network_0/router_level2_7 | Adding flit 2 to VC 0 at input 1 (state: idle, empty).
6 | network_0/router_level2_7 | Using precomputed lookahead routing information for VC 0 at input 1 (front: 2).
6 | network_0/router_level2_7/buf_1/vc_0 | Changing state from idle to vc_alloc.
6 | network_0/router_level2_7 | Beginning VC allocation for VC 0 at input 1 (front: 2).
6 | network_0/router_level2_7 |   Requesting VC 0 at output 10 (in_pri: 0, out_pri: 0).
6 | network_0/router_level2_7 |   Requesting VC 1 at output 10 (in_pri: 0, out_pri: 0).
6 | network_0/router_level2_7 |   Requesting VC 2 at output 10 (in_pri: 0, out_pri: 0).
6 | network_0/router_level2_7 |   Requesting VC 3 at output 10 (in_pri: 0, out_pri: 0).
6 | network_0/router_level2_7/vc_allocator | Input requests = [ 0 -> [ 36@0 37@0 38@0 39@0 ]  4 -> [ 40@0 41@0 42@0 43@0 ]  12 -> [ 52@0 53@0 54@0 55@0 ]  20 -> [ 32@0 33@0 34@0 35@0 ]  24 -> [ 52@0 53@0 54@0 55@0 ]  28 -> [ 44@0 45@0 46@0 47@0 ]  ], output requests = [ 32 -> [ 20@0 ]  33 -> [ 20@0 ]  34 -> [ 20@0 ]  35 -> [ 20@0 ]  36 -> [ 0@0 ]  37 -> [ 0@0 ]  38 -> [ 0@0 ]  39 -> [ 0@0 ]  40 -> [ 4@0 ]  41 -> [ 4@0 ]  42 -> [ 4@0 ]  43 -> [ 4@0 ]  44 -> [ 28@0 ]  45 -> [ 28@0 ]  46 -> [ 28@0 ]  47 -> [ 28@0 ]  52 -> [ 12@0 24@0 ]  53 -> [ 12@0 24@0 ]  54 -> [ 12@0 24@0 ]  55 -> [ 12@0 24@0 ]  ].
6 | network_0/router_level2_7/vc_allocator | Input grants = [ 0 -> 36  4 -> 40  12 -> 52  20 -> 32  28 -> 44  ], output grants = [ 32 -> 20  36 -> 0  40 -> 4  44 -> 28  52 -> 12  ].
6 | network_0/router_level2_7 | Assigning VC 0 at output 10 to VC 0 at input 1.
6 | network_0/router_level2_7 | Completed VC allocation for VC 0 at input 1 (front: 2).
6 | network_0/router_level2_7 |   Acquiring assigned VC 0 at output 10.
6 | network_0/router_level2_7/buf_1/vc_0 | Changing state from vc_alloc to active.
6 | network_0/router_level3_1 | Beginning crossbar traversal for flit 8 from input 7.0 to output 13.0.
6 | network_0/router_level3_1 | Completed crossbar traversal for flit 8 from input 7.0 to output 13.0.
6 | network_0/router_level3_1 | Buffering flit 8 at output 13.
6 | network_0/network_0_fchan_20499 | Completed channel traversal for flit 10.
6 | network_0/router_level3_1 | Sending flit 8 to channel at output 13.
7 | network_0/network_0_fchan_20493 | Beginning channel traversal for flit 8 with delay 1.
7 | network_0/router_level2_3 | Received flit 10 from channel at input 2.
7 | network_0/router_level2_0 | Beginning switch allocation for VC 0 at input 1 (front: 6).
7 | network_0/router_level2_0 |   Requesting output 14.0 (non-spec, pri: 0).
7 | network_0/router_level2_0/sw_allocator | Input requests = [ 1 -> [ 14@0 ]  5 -> [ 9@0 ]  7 -> [ 11@0 ]  ], output requests = [ 9 -> [ 5@0 ]  11 -> [ 7@0 ]  14 -> [ 1@0 ]  ].
7 | network_0/router_level2_0/sw_allocator | Input grants = [ 1 -> 14  5 -> 9  7 -> 11  ], output grants = [ 9 -> 5  11 -> 7  14 -> 1  ].
7 | network_0/router_level2_0 | Assigning output 14.0 to VC 0 at input 1.0.
7 | network_0/router_level2_0 | Completed switch allocation for VC 0 at input 1 (front: 6).
7 | network_0/router_level2_0 |   Scheduling switch connection from input 1.0 to output 14.0.
7 | network_0/router_level2_0 | Updating lookahead routing information for flit 6.
7 | network_0/router_level2_1 | Beginning switch allocation for VC 0 at input 1 (front: 5).
7 | network_0/router_level2_1 |   Requesting output 14.0 (non-spec, pri: 0).
7 | network_0/router_level2_1/sw_allocator | Input requests = [ 1 -> [ 14@0 ]  5 -> [ 12@0 ]  6 -> [ 8@0 ]  ], output requests = [ 8 -> [ 6@0 ]  12 -> [ 5@0 ]  14 -> [ 1@0 ]  ].
7 | network_0/router_level2_1/sw_allocator | Input grants = [ 1 -> 14  5 -> 12  6 -> 8  ], output grants = [ 8 -> 6  12 -> 5  14 -> 1  ].
7 | network_0/router_level2_1 | Assigning output 14.0 to VC 0 at input 1.0.
7 | network_0/router_level2_1 | Completed switch allocation for VC 0 at input 1 (front: 5).
7 | network_0/router_level2_1 |   Scheduling switch connection from input 1.0 to output 14.0.
7 | network_0/router_level2_1 | Updating lookahead routing information for flit 5.
7 | network_0/router_level2_2 | Beginning switch allocation for VC 0 at input 0 (front: 1).
7 | network_0/router_level2_2 |   Requesting output 15.0 (non-spec, pri: 0).
7 | network_0/router_level2_2/sw_allocator | Input requests = [ 0 -> [ 15@0 ]  2 -> [ 14@0 ]  ], output requests = [ 14 -> [ 2@0 ]  15 -> [ 0@0 ]  ].
7 | network_0/router_level2_2/sw_allocator | Input grants = [ 0 -> 15  2 -> 14  ], output grants = [ 14 -> 2  15 -> 0  ].
7 | network_0/router_level2_2 | Assigning output 15.0 to VC 0 at input 0.0.
7 | network_0/router_level2_2 | Completed switch allocation for VC 0 at input 0 (front: 1).
7 | network_0/router_level2_2 |   Scheduling switch connection from input 0.0 to output 15.0.
7 | network_0/router_level2_2 | Updating lookahead routing information for flit 1.
7 | network_0/router_level2_3 | Adding flit 10 to VC 1 at input 2 (state: idle, empty).
7 | network_0/router_level2_3 | Using precomputed lookahead routing information for VC 1 at input 2 (front: 10).
7 | network_0/router_level2_3/buf_2/vc_1 | Changing state from idle to vc_alloc.
7 | network_0/router_level2_3 | Beginning VC allocation for VC 1 at input 2 (front: 10).
7 | network_0/router_level2_3 |   Requesting VC 0 at output 13 (in_pri: 0, out_pri: 0).
7 | network_0/router_level2_3 |   Requesting VC 1 at output 13 (in_pri: 0, out_pri: 0).
7 | network_0/router_level2_3 |   Requesting VC 2 at output 13 (in_pri: 0, out_pri: 0).
7 | network_0/router_level2_3 |   Requesting VC 3 at output 13 (in_pri: 0, out_pri: 0).
7 | network_0/router_level2_3/vc_allocator | Input requests = [ 4 -> [ 48@0 49@0 50@0 51@0 ]  9 -> [ 52@0 53@0 54@0 55@0 ]  12 -> [ 57@0 58@0 59@0 ]  16 -> [ 60@0 61@0 62@0 63@0 ]  20 -> [ 57@0 58@0 59@0 ]  21 -> [ 36@0 37@0 38@0 39@0 ]  28 -> [ 60@0 61@0 62@0 63@0 ]  ], output requests = [ 36 -> [ 21@0 ]  37 -> [ 21@0 ]  38 -> [ 21@0 ]  39 -> [ 21@0 ]  48 -> [ 4@0 ]  49 -> [ 4@0 ]  50 -> [ 4@0 ]  51 -> [ 4@0 ]  52 -> [ 9@0 ]  53 -> [ 9@0 ]  54 -> [ 9@0 ]  55 -> [ 9@0 ]  57 -> [ 12@0 20@0 ]  58 -> [ 12@0 20@0 ]  59 -> [ 12@0 20@0 ]  60 -> [ 16@0 28@0 ]  61 -> [ 16@0 28@0 ]  62 -> [ 16@0 28@0 ]  63 -> [ 16@0 28@0 ]  ].
7 | network_0/router_level2_3/vc_allocator | Input grants = [ 4 -> 48  9 -> 52  12 -> 57  16 -> 60  21 -> 36  ], output grants = [ 36 -> 21  48 -> 4  52 -> 9  57 -> 12  60 -> 16  ].
7 | network_0/router_level2_3 | Assigning VC 0 at output 13 to VC 1 at input 2.
7 | network_0/router_level2_3 | Beginning switch allocation for VC 0 at input 2 (front: 9).
7 | network_0/router_level2_3 |   Requesting output 14.0 (non-spec, pri: 0).
7 | network_0/router_level2_3/sw_allocator | Input requests = [ 2 -> [ 14@0 ]  6 -> [ 11@0 ]  ], output requests = [ 11 -> [ 6@0 ]  14 -> [ 2@0 ]  ].
7 | network_0/router_level2_3/sw_allocator | Input grants = [ 2 -> 14  6 -> 11  ], output grants = [ 11 -> 6  14 -> 2  ].
7 | network_0/router_level2_3 | Assigning output 14.0 to VC 0 at input 2.0.
7 | network_0/router_level2_3 | Completed VC allocation for VC 1 at input 2 (front: 10).
7 | network_0/router_level2_3 |   Acquiring assigned VC 0 at output 13.
7 | network_0/router_level2_3/buf_2/vc_1 | Changing state from vc_alloc to active.
7 | network_0/router_level2_3 | Completed switch allocation for VC 0 at input 2 (front: 9).
7 | network_0/router_level2_3 |   Scheduling switch connection from input 2.0 to output 14.0.
7 | network_0/router_level2_3 | Updating lookahead routing information for flit 9.
7 | network_0/router_level2_4 | Beginning switch allocation for VC 0 at input 1 (front: 7).
7 | network_0/router_level2_4 |   Requesting output 12.0 (non-spec, pri: 0).
7 | network_0/router_level2_4/sw_allocator | Input requests = [ 1 -> [ 12@0 ]  2 -> [ 10@0 ]  3 -> [ 8@0 ]  5 -> [ 9@0 ]  ], output requests = [ 8 -> [ 3@0 ]  9 -> [ 5@0 ]  10 -> [ 2@0 ]  12 -> [ 1@0 ]  ].
7 | network_0/router_level2_4/sw_allocator | Input grants = [ 1 -> 12  2 -> 10  3 -> 8  5 -> 9  ], output grants = [ 8 -> 3  9 -> 5  10 -> 2  12 -> 1  ].
7 | network_0/router_level2_4 | Assigning output 12.0 to VC 0 at input 1.0.
7 | network_0/router_level2_4 | Completed switch allocation for VC 0 at input 1 (front: 7).
7 | network_0/router_level2_4 |   Scheduling switch connection from input 1.0 to output 12.0.
7 | network_0/router_level2_4 | Updating lookahead routing information for flit 7.
7 | network_0/router_level2_5 | Beginning switch allocation for VC 0 at input 1 (front: 3).
7 | network_0/router_level2_5 |   Requesting output 13.0 (non-spec, pri: 0).
7 | network_0/router_level2_5/sw_allocator | Input requests = [ 1 -> [ 13@0 ]  2 -> [ 11@0 ]  5 -> [ 14@0 ]  ], output requests = [ 11 -> [ 2@0 ]  13 -> [ 1@0 ]  14 -> [ 5@0 ]  ].
7 | network_0/router_level2_5/sw_allocator | Input grants = [ 1 -> 13  2 -> 11  5 -> 14  ], output grants = [ 11 -> 2  13 -> 1  14 -> 5  ].
7 | network_0/router_level2_5 | Assigning output 13.0 to VC 0 at input 1.0.
7 | network_0/router_level2_5 | Completed switch allocation for VC 0 at input 1 (front: 3).
7 | network_0/router_level2_5 |   Scheduling switch connection from input 1.0 to output 13.0.
7 | network_0/router_level2_5 | Updating lookahead routing information for flit 3.
7 | network_0/router_level2_6 | Beginning switch allocation for VC 0 at input 1 (front: 4).
7 | network_0/router_level2_6 |   Requesting output 11.0 (non-spec, pri: 0).
7 | network_0/router_level2_6/sw_allocator | Input requests = [ 1 -> [ 11@0 ]  7 -> [ 14@0 ]  ], output requests = [ 11 -> [ 1@0 ]  14 -> [ 7@0 ]  ].
7 | network_0/router_level2_6/sw_allocator | Input grants = [ 1 -> 11  7 -> 14  ], output grants = [ 11 -> 1  14 -> 7  ].
7 | network_0/router_level2_6 | Assigning output 11.0 to VC 0 at input 1.0.
7 | network_0/router_level2_6 | Completed switch allocation for VC 0 at input 1 (front: 4).
7 | network_0/router_level2_6 |   Scheduling switch connection from input 1.0 to output 11.0.
7 | network_0/router_level2_6 | Updating lookahead routing information for flit 4.
7 | network_0/router_level2_7 | Beginning switch allocation for VC 0 at input 1 (front: 2).
7 | network_0/router_level2_7 |   Requesting output 10.0 (non-spec, pri: 0).
7 | network_0/router_level2_7/sw_allocator | Input requests = [ 0 -> [ 9@0 ]  1 -> [ 10@0 ]  3 -> [ 13@0 ]  5 -> [ 8@0 ]  7 -> [ 11@0 ]  ], output requests = [ 8 -> [ 5@0 ]  9 -> [ 0@0 ]  10 -> [ 1@0 ]  11 -> [ 7@0 ]  13 -> [ 3@0 ]  ].
7 | network_0/router_level2_7/sw_allocator | Input grants = [ 0 -> 9  1 -> 10  3 -> 13  5 -> 8  7 -> 11  ], output grants = [ 8 -> 5  9 -> 0  10 -> 1  11 -> 7  13 -> 3  ].
7 | network_0/router_level2_7 | Assigning output 10.0 to VC 0 at input 1.0.
7 | network_0/router_level2_7 | Completed switch allocation for VC 0 at input 1 (front: 2).
7 | network_0/router_level2_7 |   Scheduling switch connection from input 1.0 to output 10.0.
7 | network_0/router_level2_7 | Updating lookahead routing information for flit 2.
7 | network_0/network_0_fchan_20493 | Completed channel traversal for flit 8.
8 | network_0/router_level2_5 | Received flit 8 from channel at input 1.
8 | network_0/router_level2_0 | Beginning crossbar traversal for flit 6 from input 1.0 to output 14.0.
8 | network_0/router_level2_0 | Completed crossbar traversal for flit 6 from input 1.0 to output 14.0.
8 | network_0/router_level2_0 | Buffering flit 6 at output 14.
8 | network_0/router_level2_1 | Beginning crossbar traversal for flit 5 from input 1.0 to output 14.0.
8 | network_0/router_level2_1 | Completed crossbar traversal for flit 5 from input 1.0 to output 14.0.
8 | network_0/router_level2_1 | Buffering flit 5 at output 14.
8 | network_0/router_level2_2 | Beginning crossbar traversal for flit 1 from input 0.0 to output 15.0.
8 | network_0/router_level2_2 | Completed crossbar traversal for flit 1 from input 0.0 to output 15.0.
8 | network_0/router_level2_2 | Buffering flit 1 at output 15.
8 | network_0/router_level2_3 | Beginning switch allocation for VC 1 at input 2 (front: 10).
8 | network_0/router_level2_3 |   Requesting output 13.0 (non-spec, pri: 0).
8 | network_0/router_level2_3/sw_allocator | Input requests = [ 1 -> [ 12@0 ]  2 -> [ 13@0 ]  3 -> [ 14@0 ]  4 -> [ 15@0 ]  5 -> [ 9@0 ]  ], output requests = [ 9 -> [ 5@0 ]  12 -> [ 1@0 ]  13 -> [ 2@0 ]  14 -> [ 3@0 ]  15 -> [ 4@0 ]  ].
8 | network_0/router_level2_3/sw_allocator | Input grants = [ 1 -> 12  2 -> 13  3 -> 14  4 -> 15  5 -> 9  ], output grants = [ 9 -> 5  12 -> 1  13 -> 2  14 -> 3  15 -> 4  ].
8 | network_0/router_level2_3 | Assigning output 13.0 to VC 1 at input 2.0.
8 | network_0/router_level2_3 | Beginning crossbar traversal for flit 9 from input 2.0 to output 14.0.
8 | network_0/router_level2_3 | Completed switch allocation for VC 1 at input 2 (front: 10).
8 | network_0/router_level2_3 |   Scheduling switch connection from input 2.0 to output 13.0.
8 | network_0/router_level2_3 | Updating lookahead routing information for flit 10.
8 | network_0/router_level2_3 | Completed crossbar traversal for flit 9 from input 2.0 to output 14.0.
8 | network_0/router_level2_3 | Buffering flit 9 at output 14.
8 | network_0/router_level2_4 | Beginning crossbar traversal for flit 7 from input 1.0 to output 12.0.
8 | network_0/router_level2_4 | Completed crossbar traversal for flit 7 from input 1.0 to output 12.0.
8 | network_0/router_level2_4 | Buffering flit 7 at output 12.
8 | network_0/router_level2_5 | Adding flit 8 to VC 0 at input 1 (state: idle, empty).
8 | network_0/router_level2_5 | Using precomputed lookahead routing information for VC 0 at input 1 (front: 8).
8 | network_0/router_level2_5/buf_1/vc_0 | Changing state from idle to vc_alloc.
8 | network_0/router_level2_5 | Beginning VC allocation for VC 0 at input 1 (front: 8).
8 | network_0/router_level2_5 |   Requesting VC 0 at output 12 (in_pri: 0, out_pri: 0).
8 | network_0/router_level2_5 |   Requesting VC 1 at output 12 (in_pri: 0, out_pri: 0).
8 | network_0/router_level2_5 |   Requesting VC 2 at output 12 (in_pri: 0, out_pri: 0).
8 | network_0/router_level2_5 |   Requesting VC 3 at output 12 (in_pri: 0, out_pri: 0).
8 | network_0/router_level2_5/vc_allocator | Input requests = [ 1 -> [ 36@0 37@0 38@0 39@0 ]  4 -> [ 48@0 49@0 50@0 51@0 ]  20 -> [ 36@0 37@0 38@0 39@0 ]  24 -> [ 52@0 54@0 55@0 ]  28 -> [ 52@0 54@0 55@0 ]  ], output requests = [ 36 -> [ 1@0 20@0 ]  37 -> [ 1@0 20@0 ]  38 -> [ 1@0 20@0 ]  39 -> [ 1@0 20@0 ]  48 -> [ 4@0 ]  49 -> [ 4@0 ]  50 -> [ 4@0 ]  51 -> [ 4@0 ]  52 -> [ 24@0 28@0 ]  54 -> [ 24@0 28@0 ]  55 -> [ 24@0 28@0 ]  ].
8 | network_0/router_level2_5/vc_allocator | Input grants = [ 1 -> 36  4 -> 48  24 -> 52  ], output grants = [ 36 -> 1  48 -> 4  52 -> 24  ].
8 | network_0/router_level2_5 | Assigning VC 0 at output 12 to VC 0 at input 1.
8 | network_0/router_level2_5 | Beginning crossbar traversal for flit 3 from input 1.0 to output 13.0.
8 | network_0/router_level2_5 | Completed VC allocation for VC 0 at input 1 (front: 8).
8 | network_0/router_level2_5 |   Acquiring assigned VC 0 at output 12.
8 | network_0/router_level2_5/buf_1/vc_0 | Changing state from vc_alloc to active.
8 | network_0/router_level2_5 | Completed crossbar traversal for flit 3 from input 1.0 to output 13.0.
8 | network_0/router_level2_5 | Buffering flit 3 at output 13.
8 | network_0/router_level2_6 | Beginning crossbar traversal for flit 4 from input 1.0 to output 11.0.
8 | network_0/router_level2_6 | Completed crossbar traversal for flit 4 from input 1.0 to output 11.0.
8 | network_0/router_level2_6 | Buffering flit 4 at output 11.
8 | network_0/router_level2_7 | Beginning crossbar traversal for flit 2 from input 1.0 to output 10.0.
8 | network_0/router_level2_7 | Completed crossbar traversal for flit 2 from input 1.0 to output 10.0.
8 | network_0/router_level2_7 | Buffering flit 2 at output 10.
8 | network_0/router_level2_0 | Sending flit 6 to channel at output 14.
8 | network_0/router_level2_1 | Sending flit 5 to channel at output 14.
8 | network_0/router_level2_2 | Sending flit 1 to channel at output 15.
8 | network_0/router_level2_3 | Sending flit 9 to channel at output 14.
8 | network_0/router_level2_4 | Sending flit 7 to channel at output 12.
8 | network_0/router_level2_5 | Sending flit 3 to channel at output 13.
8 | network_0/router_level2_6 | Sending flit 4 to channel at output 11.
8 | network_0/router_level2_7 | Sending flit 2 to channel at output 10.
9 | network_0/network_0_fchan_12294 | Beginning channel traversal for flit 6 with delay 1.
9 | network_0/network_0_fchan_12302 | Beginning channel traversal for flit 5 with delay 1.
9 | network_0/network_0_fchan_12311 | Beginning channel traversal for flit 1 with delay 1.
9 | network_0/network_0_fchan_12318 | Beginning channel traversal for flit 9 with delay 1.
9 | network_0/network_0_fchan_12324 | Beginning channel traversal for flit 7 with delay 1.
9 | network_0/network_0_fchan_12333 | Beginning channel traversal for flit 3 with delay 1.
9 | network_0/network_0_fchan_12339 | Beginning channel traversal for flit 4 with delay 1.
9 | network_0/network_0_fchan_12346 | Beginning channel traversal for flit 2 with delay 1.
9 | network_0/router_level2_3 | Beginning crossbar traversal for flit 10 from input 2.0 to output 13.0.
9 | network_0/router_level2_3 | Completed crossbar traversal for flit 10 from input 2.0 to output 13.0.
9 | network_0/router_level2_3 | Buffering flit 10 at output 13.
9 | network_0/router_level2_5 | Beginning switch allocation for VC 0 at input 1 (front: 8).
9 | network_0/router_level2_5 |   Requesting output 12.0 (non-spec, pri: 0).
9 | network_0/router_level2_5/sw_allocator | Input requests = [ 0 -> [ 9@0 ]  1 -> [ 12@0 ]  6 -> [ 13@0 ]  ], output requests = [ 9 -> [ 0@0 ]  12 -> [ 1@0 ]  13 -> [ 6@0 ]  ].
9 | network_0/router_level2_5/sw_allocator | Input grants = [ 0 -> 9  1 -> 12  6 -> 13  ], output grants = [ 9 -> 0  12 -> 1  13 -> 6  ].
9 | network_0/router_level2_5 | Assigning output 12.0 to VC 0 at input 1.0.
9 | network_0/router_level2_5 | Completed switch allocation for VC 0 at input 1 (front: 8).
9 | network_0/router_level2_5 |   Scheduling switch connection from input 1.0 to output 12.0.
9 | network_0/router_level2_5 | Updating lookahead routing information for flit 8.
9 | network_0/network_0_fchan_12294 | Completed channel traversal for flit 6.
9 | network_0/network_0_fchan_12302 | Completed channel traversal for flit 5.
9 | network_0/network_0_fchan_12311 | Completed channel traversal for flit 1.
9 | network_0/network_0_fchan_12318 | Completed channel traversal for flit 9.
9 | network_0/network_0_fchan_12324 | Completed channel traversal for flit 7.
9 | network_0/network_0_fchan_12333 | Completed channel traversal for flit 3.
9 | network_0/network_0_fchan_12339 | Completed channel traversal for flit 4.
9 | network_0/network_0_fchan_12346 | Completed channel traversal for flit 2.
9 | network_0/router_level2_3 | Sending flit 10 to channel at output 13.
10 | network_0/network_0_fchan_12317 | Beginning channel traversal for flit 10 with delay 1.
10 | network_0/router_level1_23 | Received flit 2 from channel at input 0.
10 | network_0/router_level1_30 | Received flit 4 from channel at input 0.
10 | network_0/router_level1_36 | Received flit 7 from channel at input 0.
10 | network_0/router_level1_45 | Received flit 3 from channel at input 0.
10 | network_0/router_level1_48 | Received flit 6 from channel at input 0.
10 | network_0/router_level1_49 | Received flit 5 from channel at input 0.
10 | network_0/router_level1_51 | Received flit 9 from channel at input 0.
10 | network_0/router_level1_58 | Received flit 1 from channel at input 0.
10 | network_0/router_level1_23 | Adding flit 2 to VC 0 at input 0 (state: idle, empty).
10 | network_0/router_level1_23 | Using precomputed lookahead routing information for VC 0 at input 0 (front: 2).
10 | network_0/router_level1_23/buf_0/vc_0 | Changing state from idle to vc_alloc.
10 | network_0/router_level1_23 | Beginning VC allocation for VC 0 at input 0 (front: 2).
10 | network_0/router_level1_23 |   Requesting VC 0 at output 15 (in_pri: 0, out_pri: 0).
10 | network_0/router_level1_23 |   Requesting VC 1 at output 15 (in_pri: 0, out_pri: 0).
10 | network_0/router_level1_23 |   Requesting VC 2 at output 15 (in_pri: 0, out_pri: 0).
10 | network_0/router_level1_23 |   Requesting VC 3 at output 15 (in_pri: 0, out_pri: 0).
10 | network_0/router_level1_23/vc_allocator | Input requests = [ 0 -> [ 60@0 61@0 62@0 63@0 ]  4 -> [ 32@0 33@0 34@0 35@0 ]  20 -> [ 4@0 5@0 6@0 7@0 ]  28 -> [ 52@0 53@0 54@0 55@0 ]  ], output requests = [ 4 -> [ 20@0 ]  5 -> [ 20@0 ]  6 -> [ 20@0 ]  7 -> [ 20@0 ]  32 -> [ 4@0 ]  33 -> [ 4@0 ]  34 -> [ 4@0 ]  35 -> [ 4@0 ]  52 -> [ 28@0 ]  53 -> [ 28@0 ]  54 -> [ 28@0 ]  55 -> [ 28@0 ]  60 -> [ 0@0 ]  61 -> [ 0@0 ]  62 -> [ 0@0 ]  63 -> [ 0@0 ]  ].
10 | network_0/router_level1_23/vc_allocator | Input grants = [ 0 -> 60  4 -> 32  20 -> 4  28 -> 52  ], output grants = [ 4 -> 20  32 -> 4  52 -> 28  60 -> 0  ].
10 | network_0/router_level1_23 | Assigning VC 0 at output 15 to VC 0 at input 0.
10 | network_0/router_level1_23 | Completed VC allocation for VC 0 at input 0 (front: 2).
10 | network_0/router_level1_23 |   Acquiring assigned VC 0 at output 15.
10 | network_0/router_level1_23/buf_0/vc_0 | Changing state from vc_alloc to active.
10 | network_0/router_level1_30 | Adding flit 4 to VC 0 at input 0 (state: idle, empty).
10 | network_0/router_level1_30 | Using precomputed lookahead routing information for VC 0 at input 0 (front: 4).
10 | network_0/router_level1_30/buf_0/vc_0 | Changing state from idle to vc_alloc.
10 | network_0/router_level1_30 | Beginning VC allocation for VC 0 at input 0 (front: 4).
10 | network_0/router_level1_30 |   Requesting VC 0 at output 14 (in_pri: 0, out_pri: 0).
10 | network_0/router_level1_30 |   Requesting VC 1 at output 14 (in_pri: 0, out_pri: 0).
10 | network_0/router_level1_30 |   Requesting VC 2 at output 14 (in_pri: 0, out_pri: 0).
10 | network_0/router_level1_30 |   Requesting VC 3 at output 14 (in_pri: 0, out_pri: 0).
10 | network_0/router_level1_30/vc_allocator | Input requests = [ 0 -> [ 56@0 57@0 58@0 59@0 ]  12 -> [ 8@0 9@0 10@0 11@0 ]  16 -> [ 56@0 57@0 58@0 59@0 ]  ], output requests = [ 8 -> [ 12@0 ]  9 -> [ 12@0 ]  10 -> [ 12@0 ]  11 -> [ 12@0 ]  56 -> [ 0@0 16@0 ]  57 -> [ 0@0 16@0 ]  58 -> [ 0@0 16@0 ]  59 -> [ 0@0 16@0 ]  ].
10 | network_0/router_level1_30/vc_allocator | Input grants = [ 0 -> 56  12 -> 8  ], output grants = [ 8 -> 12  56 -> 0  ].
10 | network_0/router_level1_30 | Assigning VC 0 at output 14 to VC 0 at input 0.
10 | network_0/router_level1_30 | Completed VC allocation for VC 0 at input 0 (front: 4).
10 | network_0/router_level1_30 |   Acquiring assigned VC 0 at output 14.
10 | network_0/router_level1_30/buf_0/vc_0 | Changing state from vc_alloc to active.
10 | network_0/router_level1_36 | Adding flit 7 to VC 0 at input 0 (state: idle, empty).
10 | network_0/router_level1_36 | Using precomputed lookahead routing information for VC 0 at input 0 (front: 7).
10 | network_0/router_level1_36/buf_0/vc_0 | Changing state from idle to vc_alloc.
10 | network_0/router_level1_36 | Beginning VC allocation for VC 0 at input 0 (front: 7).
10 | network_0/router_level1_36 |   Requesting VC 0 at output 9 (in_pri: 0, out_pri: 0).
10 | network_0/router_level1_36 |   Requesting VC 1 at output 9 (in_pri: 0, out_pri: 0).
10 | network_0/router_level1_36 |   Requesting VC 2 at output 9 (in_pri: 0, out_pri: 0).
10 | network_0/router_level1_36 |   Requesting VC 3 at output 9 (in_pri: 0, out_pri: 0).
10 | network_0/router_level1_36/vc_allocator | Input requests = [ 0 -> [ 36@0 37@0 38@0 39@0 ]  12 -> [ 60@0 61@0 62@0 63@0 ]  16 -> [ 44@0 45@0 46@0 47@0 ]  20 -> [ 44@0 45@0 46@0 47@0 ]  24 -> [ 52@0 53@0 54@0 55@0 ]  ], output requests = [ 36 -> [ 0@0 ]  37 -> [ 0@0 ]  38 -> [ 0@0 ]  39 -> [ 0@0 ]  44 -> [ 16@0 20@0 ]  45 -> [ 16@0 20@0 ]  46 -> [ 16@0 20@0 ]  47 -> [ 16@0 20@0 ]  52 -> [ 24@0 ]  53 -> [ 24@0 ]  54 -> [ 24@0 ]  55 -> [ 24@0 ]  60 -> [ 12@0 ]  61 -> [ 12@0 ]  62 -> [ 12@0 ]  63 -> [ 12@0 ]  ].
10 | network_0/router_level1_36/vc_allocator | Input grants = [ 0 -> 36  12 -> 60  16 -> 44  24 -> 52  ], output grants = [ 36 -> 0  44 -> 16  52 -> 24  60 -> 12  ].
10 | network_0/router_level1_36 | Assigning VC 0 at output 9 to VC 0 at input 0.
10 | network_0/router_level1_36 | Completed VC allocation for VC 0 at input 0 (front: 7).
10 | network_0/router_level1_36 |   Acquiring assigned VC 0 at output 9.
10 | network_0/router_level1_36/buf_0/vc_0 | Changing state from vc_alloc to active.
10 | network_0/router_level1_45 | Adding flit 3 to VC 0 at input 0 (state: idle, empty).
10 | network_0/router_level1_45 | Using precomputed lookahead routing information for VC 0 at input 0 (front: 3).
10 | network_0/router_level1_45/buf_0/vc_0 | Changing state from idle to vc_alloc.
10 | network_0/router_level1_45 | Beginning VC allocation for VC 0 at input 0 (front: 3).
10 | network_0/router_level1_45 |   Requesting VC 0 at output 15 (in_pri: 0, out_pri: 0).
10 | network_0/router_level1_45 |   Requesting VC 1 at output 15 (in_pri: 0, out_pri: 0).
10 | network_0/router_level1_45 |   Requesting VC 2 at output 15 (in_pri: 0, out_pri: 0).
10 | network_0/router_level1_45 |   Requesting VC 3 at output 15 (in_pri: 0, out_pri: 0).
10 | network_0/router_level1_45/vc_allocator | Input requests = [ 0 -> [ 60@0 61@0 62@0 63@0 ]  12 -> [ 36@0 37@0 38@0 39@0 ]  20 -> [ 40@0 41@0 42@0 43@0 ]  ], output requests = [ 36 -> [ 12@0 ]  37 -> [ 12@0 ]  38 -> [ 12@0 ]  39 -> [ 12@0 ]  40 -> [ 20@0 ]  41 -> [ 20@0 ]  42 -> [ 20@0 ]  43 -> [ 20@0 ]  60 -> [ 0@0 ]  61 -> [ 0@0 ]  62 -> [ 0@0 ]  63 -> [ 0@0 ]  ].
10 | network_0/router_level1_45/vc_allocator | Input grants = [ 0 -> 60  12 -> 36  20 -> 40  ], output grants = [ 36 -> 12  40 -> 20  60 -> 0  ].
10 | network_0/router_level1_45 | Assigning VC 0 at output 15 to VC 0 at input 0.
10 | network_0/router_level1_45 | Completed VC allocation for VC 0 at input 0 (front: 3).
10 | network_0/router_level1_45 |   Acquiring assigned VC 0 at output 15.
10 | network_0/router_level1_45/buf_0/vc_0 | Changing state from vc_alloc to active.
10 | network_0/router_level1_48 | Adding flit 6 to VC 0 at input 0 (state: idle, empty).
10 | network_0/router_level1_48 | Using precomputed lookahead routing information for VC 0 at input 0 (front: 6).
10 | network_0/router_level1_48/buf_0/vc_0 | Changing state from idle to vc_alloc.
10 | network_0/router_level1_48 | Beginning VC allocation for VC 0 at input 0 (front: 6).
10 | network_0/router_level1_48 |   Requesting VC 0 at output 9 (in_pri: 0, out_pri: 0).
10 | network_0/router_level1_48 |   Requesting VC 1 at output 9 (in_pri: 0, out_pri: 0).
10 | network_0/router_level1_48 |   Requesting VC 2 at output 9 (in_pri: 0, out_pri: 0).
10 | network_0/router_level1_48 |   Requesting VC 3 at output 9 (in_pri: 0, out_pri: 0).
10 | network_0/router_level1_48/vc_allocator | Input requests = [ 0 -> [ 36@0 37@0 38@0 39@0 ]  12 -> [ 28@0 29@0 30@0 31@0 ]  16 -> [ 40@0 41@0 42@0 43@0 ]  20 -> [ 52@0 53@0 54@0 55@0 ]  ], output requests = [ 28 -> [ 12@0 ]  29 -> [ 12@0 ]  30 -> [ 12@0 ]  31 -> [ 12@0 ]  36 -> [ 0@0 ]  37 -> [ 0@0 ]  38 -> [ 0@0 ]  39 -> [ 0@0 ]  40 -> [ 16@0 ]  41 -> [ 16@0 ]  42 -> [ 16@0 ]  43 -> [ 16@0 ]  52 -> [ 20@0 ]  53 -> [ 20@0 ]  54 -> [ 20@0 ]  55 -> [ 20@0 ]  ].
10 | network_0/router_level1_48/vc_allocator | Input grants = [ 0 -> 36  12 -> 28  16 -> 40  20 -> 52  ], output grants = [ 28 -> 12  36 -> 0  40 -> 16  52 -> 20  ].
10 | network_0/router_level1_48 | Assigning VC 0 at output 9 to VC 0 at input 0.
10 | network_0/router_level1_48 | Completed VC allocation for VC 0 at input 0 (front: 6).
10 | network_0/router_level1_48 |   Acquiring assigned VC 0 at output 9.
10 | network_0/router_level1_48/buf_0/vc_0 | Changing state from vc_alloc to active.
10 | network_0/router_level1_49 | Adding flit 5 to VC 0 at input 0 (state: idle, empty).
10 | network_0/router_level1_49 | Using precomputed lookahead routing information for VC 0 at input 0 (front: 5).
10 | network_0/router_level1_49/buf_0/vc_0 | Changing state from idle to vc_alloc.
10 | network_0/router_level1_49 | Beginning VC allocation for VC 0 at input 0 (front: 5).
10 | network_0/router_level1_49 |   Requesting VC 0 at output 13 (in_pri: 0, out_pri: 0).
10 | network_0/router_level1_49 |   Requesting VC 1 at output 13 (in_pri: 0, out_pri: 0).
10 | network_0/router_level1_49 |   Requesting VC 2 at output 13 (in_pri: 0, out_pri: 0).
10 | network_0/router_level1_49 |   Requesting VC 3 at output 13 (in_pri: 0, out_pri: 0).
10 | network_0/router_level1_49/vc_allocator | Input requests = [ 0 -> [ 52@0 53@0 54@0 55@0 ]  4 -> [ 60@0 61@0 62@0 63@0 ]  12 -> [ 36@0 37@0 38@0 39@0 ]  20 -> [ 60@0 61@0 62@0 63@0 ]  ], output requests = [ 36 -> [ 12@0 ]  37 -> [ 12@0 ]  38 -> [ 12@0 ]  39 -> [ 12@0 ]  52 -> [ 0@0 ]  53 -> [ 0@0 ]  54 -> [ 0@0 ]  55 -> [ 0@0 ]  60 -> [ 4@0 20@0 ]  61 -> [ 4@0 20@0 ]  62 -> [ 4@0 20@0 ]  63 -> [ 4@0 20@0 ]  ].
10 | network_0/router_level1_49/vc_allocator | Input grants = [ 0 -> 52  4 -> 60  12 -> 36  ], output grants = [ 36 -> 12  52 -> 0  60 -> 4  ].
10 | network_0/router_level1_49 | Assigning VC 0 at output 13 to VC 0 at input 0.
10 | network_0/router_level1_49 | Completed VC allocation for VC 0 at input 0 (front: 5).
10 | network_0/router_level1_49 |   Acquiring assigned VC 0 at output 13.
10 | network_0/router_level1_49/buf_0/vc_0 | Changing state from vc_alloc to active.
10 | network_0/router_level1_51 | Adding flit 9 to VC 0 at input 0 (state: idle, empty).
10 | network_0/router_level1_51 | Using precomputed lookahead routing information for VC 0 at input 0 (front: 9).
10 | network_0/router_level1_51/buf_0/vc_0 | Changing state from idle to vc_alloc.
10 | network_0/router_level1_51 | Beginning VC allocation for VC 0 at input 0 (front: 9).
10 | network_0/router_level1_51 |   Requesting VC 0 at output 11 (in_pri: 0, out_pri: 0).
10 | network_0/router_level1_51 |   Requesting VC 1 at output 11 (in_pri: 0, out_pri: 0).
10 | network_0/router_level1_51 |   Requesting VC 2 at output 11 (in_pri: 0, out_pri: 0).
10 | network_0/router_level1_51 |   Requesting VC 3 at output 11 (in_pri: 0, out_pri: 0).
10 | network_0/router_level1_51/vc_allocator | Input requests = [ 0 -> [ 44@0 45@0 46@0 47@0 ]  4 -> [ 40@0 41@0 42@0 43@0 ]  ], output requests = [ 40 -> [ 4@0 ]  41 -> [ 4@0 ]  42 -> [ 4@0 ]  43 -> [ 4@0 ]  44 -> [ 0@0 ]  45 -> [ 0@0 ]  46 -> [ 0@0 ]  47 -> [ 0@0 ]  ].
10 | network_0/router_level1_51/vc_allocator | Input grants = [ 0 -> 44  4 -> 40  ], output grants = [ 40 -> 4  44 -> 0  ].
10 | network_0/router_level1_51 | Assigning VC 0 at output 11 to VC 0 at input 0.
10 | network_0/router_level1_51 | Completed VC allocation for VC 0 at input 0 (front: 9).
10 | network_0/router_level1_51 |   Acquiring assigned VC 0 at output 11.
10 | network_0/router_level1_51/buf_0/vc_0 | Changing state from vc_alloc to active.
10 | network_0/router_level1_58 | Adding flit 1 to VC 0 at input 0 (state: idle, empty).
10 | network_0/router_level1_58 | Using precomputed lookahead routing information for VC 0 at input 0 (front: 1).
10 | network_0/router_level1_58/buf_0/vc_0 | Changing state from idle to vc_alloc.
10 | network_0/router_level1_58 | Beginning VC allocation for VC 0 at input 0 (front: 1).
10 | network_0/router_level1_58 |   Requesting VC 0 at output 5 (in_pri: 0, out_pri: 0).
10 | network_0/router_level1_58 |   Requesting VC 1 at output 5 (in_pri: 0, out_pri: 0).
10 | network_0/router_level1_58 |   Requesting VC 2 at output 5 (in_pri: 0, out_pri: 0).
10 | network_0/router_level1_58 |   Requesting VC 3 at output 5 (in_pri: 0, out_pri: 0).
10 | network_0/router_level1_58/vc_allocator | Input requests = [ 0 -> [ 20@0 21@0 22@0 23@0 ]  12 -> [ 44@0 45@0 46@0 47@0 ]  16 -> [ 32@0 33@0 34@0 35@0 ]  ], output requests = [ 20 -> [ 0@0 ]  21 -> [ 0@0 ]  22 -> [ 0@0 ]  23 -> [ 0@0 ]  32 -> [ 16@0 ]  33 -> [ 16@0 ]  34 -> [ 16@0 ]  35 -> [ 16@0 ]  44 -> [ 12@0 ]  45 -> [ 12@0 ]  46 -> [ 12@0 ]  47 -> [ 12@0 ]  ].
10 | network_0/router_level1_58/vc_allocator | Input grants = [ 0 -> 20  12 -> 44  16 -> 32  ], output grants = [ 20 -> 0  32 -> 16  44 -> 12  ].
10 | network_0/router_level1_58 | Assigning VC 0 at output 5 to VC 0 at input 0.
10 | network_0/router_level1_58 | Completed VC allocation for VC 0 at input 0 (front: 1).
10 | network_0/router_level1_58 |   Acquiring assigned VC 0 at output 5.
10 | network_0/router_level1_58/buf_0/vc_0 | Changing state from vc_alloc to active.
10 | network_0/router_level2_5 | Beginning crossbar traversal for flit 8 from input 1.0 to output 12.0.
10 | network_0/router_level2_5 | Completed crossbar traversal for flit 8 from input 1.0 to output 12.0.
10 | network_0/router_level2_5 | Buffering flit 8 at output 12.
10 | network_0/network_0_fchan_12317 | Completed channel traversal for flit 10.
10 | network_0/router_level2_5 | Sending flit 8 to channel at output 12.
[...]
28 | network_0/router_level3_88 | Completed crossbar traversal for flit 4 from input 14.0 to output 0.0.
28 | network_0/router_level3_88 | Buffering flit 4 at output 0.
28 | network_0/router_level3_96 | Beginning switch allocation for VC 1 at input 9 (front: 5).
28 | network_0/router_level3_96 |   Requesting output 0.0 (non-spec, pri: 0).
28 | network_0/router_level3_96/sw_allocator | Input requests = [ 0 -> [ 10@0 ]  1 -> [ 11@0 14@0 ]  4 -> [ 8@0 11@0 ]  6 -> [ 11@0 ]  7 -> [ 8@0 ]  9 -> [ 0@0 ]  10 -> [ 4@0 ]  14 -> [ 3@0 ]  ], output requests = [ 0 -> [ 9@0 ]  3 -> [ 14@0 ]  4 -> [ 10@0 ]  8 -> [ 4@0 7@0 ]  10 -> [ 0@0 ]  11 -> [ 1@0 4@0 6@0 ]  14 -> [ 1@0 ]  ].
28 | network_0/router_level3_96/sw_allocator | Input grants = [ 0 -> 10  1 -> 14  4 -> 8  6 -> 11  9 -> 0  10 -> 4  14 -> 3  ], output grants = [ 0 -> 9  3 -> 14  4 -> 10  8 -> 4  10 -> 0  11 -> 6  14 -> 1  ].
28 | network_0/router_level3_96 | Assigning output 0.0 to VC 1 at input 9.0.
28 | network_0/router_level3_96 | Completed switch allocation for VC 1 at input 9 (front: 5).
28 | network_0/router_level3_96 |   Scheduling switch connection from input 9.0 to output 0.0.
28 | network_0/router_level3_104 | Beginning switch allocation for VC 1 at input 8 (front: 6).
28 | network_0/router_level3_104 |   Requesting output 0.0 (non-spec, pri: 0).
28 | network_0/router_level3_104/sw_allocator | Input requests = [ 0 -> [ 11@0 ]  1 -> [ 15@0 ]  2 -> [ 10@0 ]  4 -> [ 9@0 ]  5 -> [ 15@0 ]  6 -> [ 8@0 9@0 14@0 ]  7 -> [ 13@0 14@0 ]  8 -> [ 0@0 ]  9 -> [ 6@0 ]  ], output requests = [ 0 -> [ 8@0 ]  6 -> [ 9@0 ]  8 -> [ 6@0 ]  9 -> [ 4@0 6@0 ]  10 -> [ 2@0 ]  11 -> [ 0@0 ]  13 -> [ 7@0 ]  14 -> [ 6@0 7@0 ]  15 -> [ 1@0 5@0 ]  ].
28 | network_0/router_level3_104/sw_allocator | Input grants = [ 0 -> 11  1 -> 15  2 -> 10  4 -> 9  6 -> 14  7 -> 13  8 -> 0  9 -> 6  ], output grants = [ 0 -> 8  6 -> 9  9 -> 4  10 -> 2  11 -> 0  13 -> 7  14 -> 6  15 -> 1  ].
28 | network_0/router_level3_104 | Assigning output 0.0 to VC 1 at input 8.0.
28 | network_0/router_level3_104 | Completed switch allocation for VC 1 at input 8 (front: 6).
28 | network_0/router_level3_104 |   Scheduling switch connection from input 8.0 to output 0.0.
28 | network_0/router_level3_112 | Beginning crossbar traversal for flit 7 from input 12.0 to output 0.0.
28 | network_0/router_level3_112 | Completed crossbar traversal for flit 7 from input 12.0 to output 0.0.
28 | network_0/router_level3_112 | Buffering flit 7 at output 0.
28 | network_0/router_level3_144 | Beginning crossbar traversal for flit 9 from input 11.0 to output 0.0.
28 | network_0/router_level3_144 | Completed crossbar traversal for flit 9 from input 11.0 to output 0.0.
28 | network_0/router_level3_144 | Buffering flit 9 at output 0.
28 | network_0/router_level3_152 | Beginning switch allocation for VC 0 at input 11 (front: 10).
28 | network_0/router_level3_152 |   Requesting output 0.0 (non-spec, pri: 0).
28 | network_0/router_level3_152/sw_allocator | Input requests = [ 3 -> [ 11@0 15@0 ]  6 -> [ 9@0 10@0 13@0 ]  7 -> [ 13@0 ]  8 -> [ 2@0 ]  11 -> [ 0@0 ]  13 -> [ 7@0 ]  14 -> [ 4@0 ]  ], output requests = [ 0 -> [ 11@0 ]  2 -> [ 8@0 ]  4 -> [ 14@0 ]  7 -> [ 13@0 ]  9 -> [ 6@0 ]  10 -> [ 6@0 ]  11 -> [ 3@0 ]  13 -> [ 6@0 7@0 ]  15 -> [ 3@0 ]  ].
28 | network_0/router_level3_152/sw_allocator | Input grants = [ 3 -> 11  6 -> 9  7 -> 13  8 -> 2  11 -> 0  13 -> 7  14 -> 4  ], output grants = [ 0 -> 11  2 -> 8  4 -> 14  7 -> 13  9 -> 6  11 -> 3  13 -> 7  ].
28 | network_0/router_level3_152 | Assigning output 0.0 to VC 0 at input 11.0.
28 | network_0/router_level3_152 | Completed switch allocation for VC 0 at input 11 (front: 10).
28 | network_0/router_level3_152 |   Scheduling switch connection from input 11.0 to output 0.0.
28 | network_0/router_level2_125 | Sending flit 8 to channel at output 0.
28 | network_0/router_level3_72 | Sending flit 3 to channel at output 0.
28 | network_0/router_level3_88 | Sending flit 4 to channel at output 0.
28 | network_0/router_level3_112 | Sending flit 7 to channel at output 0.
28 | network_0/router_level3_144 | Sending flit 9 to channel at output 0.
29 | network_0/network_0_fchan_egress576 | Beginning channel traversal for flit 3 with delay 1.
29 | network_0/network_0_fchan_egress704 | Beginning channel traversal for flit 4 with delay 1.
29 | network_0/network_0_fchan_egress896 | Beginning channel traversal for flit 7 with delay 1.
29 | network_0/network_0_fchan_egress1152 | Beginning channel traversal for flit 9 with delay 1.
29 | network_0/network_0_fchan_17384 | Beginning channel traversal for flit 8 with delay 1.
29 | network_0/router_level3_64 | Beginning crossbar traversal for flit 2 from input 15.0 to output 0.0.
29 | network_0/router_level3_64 | Completed crossbar traversal for flit 2 from input 15.0 to output 0.0.
29 | network_0/router_level3_64 | Buffering flit 2 at output 0.
29 | network_0/router_level3_96 | Beginning crossbar traversal for flit 5 from input 9.0 to output 0.0.
29 | network_0/router_level3_96 | Completed crossbar traversal for flit 5 from input 9.0 to output 0.0.
29 | network_0/router_level3_96 | Buffering flit 5 at output 0.
29 | network_0/router_level3_104 | Beginning crossbar traversal for flit 6 from input 8.0 to output 0.0.
29 | network_0/router_level3_104 | Completed crossbar traversal for flit 6 from input 8.0 to output 0.0.
29 | network_0/router_level3_104 | Buffering flit 6 at output 0.
29 | network_0/router_level3_152 | Beginning crossbar traversal for flit 10 from input 11.0 to output 0.0.
29 | network_0/router_level3_152 | Completed crossbar traversal for flit 10 from input 11.0 to output 0.0.
29 | network_0/router_level3_152 | Buffering flit 10 at output 0.
29 | network_0/network_0_fchan_egress576 | Completed channel traversal for flit 3.
29 | network_0/network_0_fchan_egress704 | Completed channel traversal for flit 4.
29 | network_0/network_0_fchan_egress896 | Completed channel traversal for flit 7.
29 | network_0/network_0_fchan_egress1152 | Completed channel traversal for flit 9.
29 | network_0/network_0_fchan_17384 | Completed channel traversal for flit 8.
29 | network_0/router_level3_64 | Sending flit 2 to channel at output 0.
29 | network_0/router_level3_96 | Sending flit 5 to channel at output 0.
29 | network_0/router_level3_104 | Sending flit 6 to channel at output 0.
29 | network_0/router_level3_152 | Sending flit 10 to channel at output 0.
30 | node576 | Ejecting flit 3 (packet 3) from VC 0.
30 | node704 | Ejecting flit 4 (packet 4) from VC 0.
30 | node896 | Ejecting flit 7 (packet 7) from VC 0.
30 | node1152 | Ejecting flit 9 (packet 9) from VC 0.
30 | network_0/network_0_fchan_egress512 | Beginning channel traversal for flit 2 with delay 1.
30 | network_0/network_0_fchan_egress768 | Beginning channel traversal for flit 5 with delay 1.
30 | network_0/network_0_fchan_egress832 | Beginning channel traversal for flit 6 with delay 1.
30 | network_0/network_0_fchan_egress1216 | Beginning channel traversal for flit 10 with delay 1.
30 | network_0/router_level3_120 | Received flit 8 from channel at input 13.
30 | node576 | Injecting credit for VC 0 into subnet 0.
30 | node576 | Retiring flit 3 (packet 3, src = 9, dest = 576, hops = 7, flat = 30).
30 | node576 | Retiring packet 3 (plat = 30, nlat = 30, frag = 0, src = 9, dest = 576).
30 | node704 | Injecting credit for VC 0 into subnet 0.
30 | node704 | Retiring flit 4 (packet 4, src = 11, dest = 704, hops = 7, flat = 30).
30 | node704 | Retiring packet 4 (plat = 30, nlat = 30, frag = 0, src = 11, dest = 704).
30 | node896 | Injecting credit for VC 0 into subnet 0.
30 | node896 | Retiring flit 7 (packet 7, src = 14, dest = 896, hops = 7, flat = 30).
30 | node896 | Retiring packet 7 (plat = 30, nlat = 30, frag = 0, src = 14, dest = 896).
30 | node1152 | Injecting credit for VC 0 into subnet 0.
30 | node1152 | Retiring flit 9 (packet 9, src = 18, dest = 1152, hops = 7, flat = 30).
30 | node1152 | Retiring packet 9 (plat = 30, nlat = 30, frag = 0, src = 18, dest = 1152).
30 | network_0/router_level3_120 | Adding flit 8 to VC 0 at input 13 (state: idle, empty).
30 | network_0/router_level3_120 | Using precomputed lookahead routing information for VC 0 at input 13 (front: 8).
30 | network_0/router_level3_120/buf_13/vc_0 | Changing state from idle to vc_alloc.
30 | network_0/router_level3_120 | Beginning VC allocation for VC 0 at input 13 (front: 8).
30 | network_0/router_level3_120 |   VC 0 at output 0 is in use by VC 1 at input 13 (front flit: 6114).
30 | network_0/router_level3_120 |   Requesting VC 1 at output 0 (in_pri: 0, out_pri: 0).
30 | network_0/router_level3_120 |   Requesting VC 2 at output 0 (in_pri: 0, out_pri: 0).
30 | network_0/router_level3_120 |   Requesting VC 3 at output 0 (in_pri: 0, out_pri: 0).
30 | network_0/router_level3_120/vc_allocator | Input requests = [ 4 -> [ 48@0 49@0 50@0 51@0 ]  7 -> [ 56@0 ]  24 -> [ 45@0 46@0 47@0 ]  28 -> [ 45@0 46@0 47@0 ]  33 -> [ 20@0 21@0 22@0 23@0 ]  40 -> [ 28@0 29@0 30@0 31@0 ]  45 -> [ 8@0 10@0 11@0 ]  52 -> [ 1@0 2@0 3@0 ]  60 -> [ 16@0 17@0 18@0 19@0 ]  ], output requests = [ 1 -> [ 52@0 ]  2 -> [ 52@0 ]  3 -> [ 52@0 ]  8 -> [ 45@0 ]  10 -> [ 45@0 ]  11 -> [ 45@0 ]  16 -> [ 60@0 ]  17 -> [ 60@0 ]  18 -> [ 60@0 ]  19 -> [ 60@0 ]  20 -> [ 33@0 ]  21 -> [ 33@0 ]  22 -> [ 33@0 ]  23 -> [ 33@0 ]  28 -> [ 40@0 ]  29 -> [ 40@0 ]  30 -> [ 40@0 ]  31 -> [ 40@0 ]  45 -> [ 24@0 28@0 ]  46 -> [ 24@0 28@0 ]  47 -> [ 24@0 28@0 ]  48 -> [ 4@0 ]  49 -> [ 4@0 ]  50 -> [ 4@0 ]  51 -> [ 4@0 ]  56 -> [ 7@0 ]  ].
30 | network_0/router_level3_120/vc_allocator | Input grants = [ 4 -> 48  7 -> 56  24 -> 45  33 -> 21  40 -> 28  45 -> 10  52 -> 1  60 -> 16  ], output grants = [ 1 -> 52  10 -> 45  16 -> 60  21 -> 33  28 -> 40  45 -> 24  48 -> 4  56 -> 7  ].
30 | network_0/router_level3_120 | Assigning VC 1 at output 0 to VC 0 at input 13.
30 | network_0/router_level3_120 | Completed VC allocation for VC 0 at input 13 (front: 8).
30 | network_0/router_level3_120 |   Acquiring assigned VC 1 at output 0.
30 | network_0/router_level3_120/buf_13/vc_0 | Changing state from vc_alloc to active.
30 | network_0/network_0_fchan_egress512 | Completed channel traversal for flit 2.
30 | network_0/network_0_fchan_egress768 | Completed channel traversal for flit 5.
30 | network_0/network_0_fchan_egress832 | Completed channel traversal for flit 6.
30 | network_0/network_0_fchan_egress1216 | Completed channel traversal for flit 10.
31 | node512 | Ejecting flit 2 (packet 2) from VC 0.
31 | node768 | Ejecting flit 5 (packet 5) from VC 0.
31 | node832 | Ejecting flit 6 (packet 6) from VC 0.
31 | node1216 | Ejecting flit 10 (packet 10) from VC 0.
31 | node512 | Injecting credit for VC 0 into subnet 0.
31 | node512 | Retiring flit 2 (packet 2, src = 8, dest = 512, hops = 7, flat = 31).
31 | node512 | Retiring packet 2 (plat = 31, nlat = 31, frag = 0, src = 8, dest = 512).
31 | node768 | Injecting credit for VC 0 into subnet 0.
31 | node768 | Retiring flit 5 (packet 5, src = 12, dest = 768, hops = 7, flat = 31).
31 | node768 | Retiring packet 5 (plat = 31, nlat = 31, frag = 0, src = 12, dest = 768).
31 | node832 | Injecting credit for VC 0 into subnet 0.
31 | node832 | Retiring flit 6 (packet 6, src = 13, dest = 832, hops = 7, flat = 31).
31 | node832 | Retiring packet 6 (plat = 31, nlat = 31, frag = 0, src = 13, dest = 832).
31 | node1216 | Injecting credit for VC 0 into subnet 0.
31 | node1216 | Retiring flit 10 (packet 10, src = 19, dest = 1216, hops = 7, flat = 31).
31 | node1216 | Retiring packet 10 (plat = 31, nlat = 31, frag = 0, src = 19, dest = 1216).
31 | network_0/router_level3_120 | Beginning switch allocation for VC 0 at input 13 (front: 8).
31 | network_0/router_level3_120 |   Requesting output 0.0 (non-spec, pri: 0).
31 | network_0/router_level3_120/sw_allocator | Input requests = [ 1 -> [ 12@0 14@0 ]  2 -> [ 10@0 ]  3 -> [ 14@0 ]  4 -> [ 10@0 14@0 ]  6 -> [ 8@0 11@0 15@0 ]  8 -> [ 5@0 ]  10 -> [ 7@0 ]  11 -> [ 2@0 ]  13 -> [ 0@0 ]  15 -> [ 4@0 ]  ], output requests = [ 0 -> [ 13@0 ]  2 -> [ 11@0 ]  4 -> [ 15@0 ]  5 -> [ 8@0 ]  7 -> [ 10@0 ]  8 -> [ 6@0 ]  10 -> [ 2@0 4@0 ]  11 -> [ 6@0 ]  12 -> [ 1@0 ]  14 -> [ 1@0 3@0 4@0 ]  15 -> [ 6@0 ]  ].
31 | network_0/router_level3_120/sw_allocator | Input grants = [ 1 -> 12  2 -> 10  3 -> 14  6 -> 15  8 -> 5  10 -> 7  11 -> 2  13 -> 0  15 -> 4  ], output grants = [ 0 -> 13  2 -> 11  4 -> 15  5 -> 8  7 -> 10  10 -> 2  12 -> 1  14 -> 3  15 -> 6  ].
31 | network_0/router_level3_120 | Assigning output 0.0 to VC 0 at input 13.0.
31 | network_0/router_level3_120 | Completed switch allocation for VC 0 at input 13 (front: 8).
31 | network_0/router_level3_120 |   Scheduling switch connection from input 13.0 to output 0.0.
32 | network_0/router_level3_120 | Beginning crossbar traversal for flit 8 from input 13.0 to output 0.0.
32 | network_0/router_level3_120 | Completed crossbar traversal for flit 8 from input 13.0 to output 0.0.
32 | network_0/router_level3_120 | Buffering flit 8 at output 0.
32 | network_0/router_level3_120 | Sending flit 8 to channel at output 0.
33 | network_0/network_0_fchan_egress960 | Beginning channel traversal for flit 8 with delay 1.
33 | network_0/network_0_fchan_egress960 | Completed channel traversal for flit 8.
34 | node960 | Ejecting flit 8 (packet 8) from VC 1.
34 | node960 | Injecting credit for VC 1 into subnet 0.
34 | node960 | Retiring flit 8 (packet 8, src = 15, dest = 960, hops = 7, flat = 34).
34 | node960 | Retiring packet 8 (plat = 34, nlat = 34, frag = 0, src = 15, dest = 960).
Class 0:
Packet latency average = 38.397
	minimum = 6
	maximum = 101
Network latency average = 38.397
	minimum = 6
	maximum = 101
Slowest packet = 1602774
Flit latency average = 38.397
	minimum = 6
	maximum = 101
Slowest flit = 1602774
Fragmentation average = 0
	minimum = 0
	maximum = 0
Injected packet rate average = 0.499673
	minimum = 0.452 (at node 385)
	maximum = 0.562 (at node 3220)
Accepted packet rate average = 0.480258
	minimum = 0.427 (at node 1315)
	maximum = 0.539 (at node 1046)
Injected flit rate average = 0.499673
	minimum = 0.452 (at node 385)
	maximum = 0.562 (at node 3220)
Accepted flit rate average= 0.480258
	minimum = 0.427 (at node 1315)
	maximum = 0.539 (at node 1046)
Injected packet length average = 1
Accepted packet length average = 1
Total in-flight flits = 79526 (0 measured)
latency change    = 1
throughput change = 1
Class 0:
Packet latency average = 38.5637
	minimum = 6
	maximum = 101
Network latency average = 38.5637
	minimum = 6
	maximum = 101
Slowest packet = 1602774
Flit latency average = 38.5637
	minimum = 6
	maximum = 101
Slowest flit = 1602774
Fragmentation average = 0
	minimum = 0
	maximum = 0
Injected packet rate average = 0.49985
	minimum = 0.4615 (at node 3454)
	maximum = 0.5505 (at node 1522)
Accepted packet rate average = 0.490257
	minimum = 0.45 (at node 4021)
	maximum = 0.5385 (at node 3223)
Injected flit rate average = 0.49985
	minimum = 0.4615 (at node 3454)
	maximum = 0.5505 (at node 1522)
Accepted flit rate average= 0.490257
	minimum = 0.45 (at node 4021)
	maximum = 0.5385 (at node 3223)
Injected packet length average = 1
Accepted packet length average = 1
Total in-flight flits = 78591 (0 measured)
latency change    = 0.00432301
throughput change = 0.020396
Class 0:
Packet latency average = 38.6907
	minimum = 6
	maximum = 111
Network latency average = 38.6907
	minimum = 6
	maximum = 111
Slowest packet = 4712707
Flit latency average = 38.6907
	minimum = 6
	maximum = 111
Slowest flit = 4712707
Fragmentation average = 0
	minimum = 0
	maximum = 0
Injected packet rate average = 0.499993
	minimum = 0.448 (at node 2668)
	maximum = 0.548 (at node 1776)
Accepted packet rate average = 0.499823
	minimum = 0.45 (at node 2857)
	maximum = 0.553 (at node 3447)
Injected flit rate average = 0.499993
	minimum = 0.448 (at node 2668)
	maximum = 0.548 (at node 1776)
Accepted flit rate average= 0.499823
	minimum = 0.45 (at node 2857)
	maximum = 0.553 (at node 3447)
Injected packet length average = 1
Accepted packet length average = 1
Total in-flight flits = 79288 (0 measured)
latency change    = 0.00328067
throughput change = 0.0191381
Warmed up ...Time used is 3000 cycles
Class 0:
Packet latency average = 38.6143
	minimum = 6
	maximum = 101
Network latency average = 38.6143
	minimum = 6
	maximum = 101
Slowest packet = 7127613
Flit latency average = 38.6839
	minimum = 6
	maximum = 101
Slowest flit = 7127613
Fragmentation average = 0
	minimum = 0
	maximum = 0
Injected packet rate average = 0.499688
	minimum = 0.441 (at node 1114)
	maximum = 0.555 (at node 1910)
Accepted packet rate average = 0.499701
	minimum = 0.441 (at node 1681)
	maximum = 0.552 (at node 1168)
Injected flit rate average = 0.499688
	minimum = 0.441 (at node 1114)
	maximum = 0.555 (at node 1910)
Accepted flit rate average= 0.499701
	minimum = 0.441 (at node 1681)
	maximum = 0.552 (at node 1168)
Injected packet length average = 1
Accepted packet length average = 1
Total in-flight flits = 79235 (79235 measured)
latency change    = 0.00197717
throughput change = 0.000242821
Class 0:
Packet latency average = 38.68
	minimum = 6
	maximum = 101
Network latency average = 38.68
	minimum = 6
	maximum = 101
Slowest packet = 7127613
Flit latency average = 38.7135
	minimum = 6
	maximum = 101
Slowest flit = 7127613
Fragmentation average = 0
	minimum = 0
	maximum = 0
Injected packet rate average = 0.499945
	minimum = 0.456 (at node 3448)
	maximum = 0.5395 (at node 3845)
Accepted packet rate average = 0.499992
	minimum = 0.459 (at node 1569)
	maximum = 0.5395 (at node 2470)
Injected flit rate average = 0.499945
	minimum = 0.456 (at node 3448)
	maximum = 0.5395 (at node 3845)
Accepted flit rate average= 0.499992
	minimum = 0.459 (at node 1569)
	maximum = 0.5395 (at node 2470)
Injected packet length average = 1
Accepted packet length average = 1
Total in-flight flits = 78904 (78904 measured)
latency change    = 0.00169897
throughput change = 0.000582284
Class 0:
Packet latency average = 38.7096
	minimum = 6
	maximum = 101
Network latency average = 38.7096
	minimum = 6
	maximum = 101
Slowest packet = 7127613
Flit latency average = 38.7316
	minimum = 6
	maximum = 101
Slowest flit = 7127613
Fragmentation average = 0
	minimum = 0
	maximum = 0
Injected packet rate average = 0.500058
	minimum = 0.464667 (at node 2136)
	maximum = 0.53 (at node 580)
Accepted packet rate average = 0.500064
	minimum = 0.465 (at node 260)
	maximum = 0.530667 (at node 4069)
Injected flit rate average = 0.500058
	minimum = 0.464667 (at node 2136)
	maximum = 0.53 (at node 580)
Accepted flit rate average= 0.500064
	minimum = 0.465 (at node 260)
	maximum = 0.530667 (at node 4069)
Injected packet length average = 1
Accepted packet length average = 1
Total in-flight flits = 79213 (79213 measured)
latency change    = 0.000763931
throughput change = 0.00014378
Draining all recorded packets ...
Draining remaining packets ...
Time taken is 6141 cycles
====== Overall Traffic Statistics ======
====== Traffic class 0 ======
Packet latency average = 38.7319 (1 samples)
	minimum = 6 (1 samples)
	maximum = 101 (1 samples)
Network latency average = 38.7319 (1 samples)
	minimum = 6 (1 samples)
	maximum = 101 (1 samples)
Flit latency average = 38.7496 (1 samples)
	minimum = 6 (1 samples)
	maximum = 101 (1 samples)
Fragmentation average = 0 (1 samples)
	minimum = 0 (1 samples)
	maximum = 0 (1 samples)
Injected packet rate average = 0.500058 (1 samples)
	minimum = 0.464667 (1 samples)
	maximum = 0.53 (1 samples)
Accepted packet rate average = 0.500064 (1 samples)
	minimum = 0.465 (1 samples)
	maximum = 0.530667 (1 samples)
Injected flit rate average = 0.500058 (1 samples)
	minimum = 0.464667 (1 samples)
	maximum = 0.53 (1 samples)
Accepted flit rate average = 0.500064 (1 samples)
	minimum = 0.465 (1 samples)
	maximum = 0.530667 (1 samples)
Injected packet size average = 1 (1 samples)
Accepted packet size average = 1 (1 samples)
Hops average = 6.68757 (1 samples)
Total run time 1148.42
