BEGIN Configuration File: examples/fattree_config_0.35_2_transpose
// $Id: dragonflyconfig 3555 2011-05-16 23:37:55Z dub $

// Copyright (c) 2007-2015, Trustees of The Leland Stanford Junior University
// All rights reserved.
//
// Redistribution and use in source and binary forms, with or without
// modification, are permitted provided that the following conditions are met:
//
// Redistributions of source code must retain the above copyright notice, this
// list of conditions and the following disclaimer.
// Redistributions in binary form must reproduce the above copyright notice,
// this list of conditions and the following disclaimer in the documentation
// and/or other materials provided with the distribution.
//
// THIS SOFTWARE IS PROVIDED BY THE COPYRIGHT HOLDERS AND CONTRIBUTORS "AS IS"
// AND ANY EXPRESS OR IMPLIED WARRANTIES, INCLUDING, BUT NOT LIMITED TO, THE
// IMPLIED WARRANTIES OF MERCHANTABILITY AND FITNESS FOR A PARTICULAR PURPOSE
// ARE DISCLAIMED. IN NO EVENT SHALL THE COPYRIGHT OWNER OR CONTRIBUTORS BE
// LIABLE FOR ANY DIRECT, INDIRECT, INCIDENTAL, SPECIAL, EXEMPLARY, OR
// CONSEQUENTIAL DAMAGES (INCLUDING, BUT NOT LIMITED TO, PROCUREMENT OF
// SUBSTITUTE GOODS OR SERVICES; LOSS OF USE, DATA, OR PROFITS; OR BUSINESS
// INTERRUPTION) HOWEVER CAUSED AND ON ANY THEORY OF LIABILITY, WHETHER IN
// CONTRACT, STRICT LIABILITY, OR TORT (INCLUDING NEGLIGENCE OR OTHERWISE)
// ARISING IN ANY WAY OUT OF THE USE OF THIS SOFTWARE, EVEN IF ADVISED OF THE
// POSSIBILITY OF SUCH DAMAGE.


hold_switch_for_packet=1;

vc_buf_size = 16;


wait_for_tail_credit = 0;

//
// Router architecture
//
vc_allocator = separable_input_first; 
sw_allocator = separable_input_first;
alloc_iters  = 1;

credit_delay   = 2;
routing_delay  = 0;
vc_alloc_delay = 1;
sw_alloc_delay = 1;
st_final_delay = 1;

input_speedup     = 1;
output_speedup    = 1;
internal_speedup  = 1.0;


warmup_periods = 3;
sim_count          = 1;

sample_period  = 1000;  

routing_function = nca;
num_vcs     = 4;

priority = none;
traffic = transpose;


injection_rate = 0.35;
packet_size = 1;
injection_rate_uses_flits=1;

topology = fattree;

k  = 8;
n  = 4;
t = 2;

watch_file = watchfile.txt;
watch_out=-;
stats_out = examples/fattree_config_0.35_2_transpose.m;

END Configuration File: examples/fattree_config_0.35_2_transpose
Fat Tree
 k = 8 levels = 4
 each switch - total radix =  16
 # of switches = 2048
 # of channels = 24576
 # of nodes ( size of network ) = 4096
 tapering factor = 2
0 | node11 | Enqueuing flit 1 (packet 1) at time 0.
0 | node12 | Enqueuing flit 2 (packet 2) at time 0.
0 | node13 | Enqueuing flit 3 (packet 3) at time 0.
0 | node14 | Enqueuing flit 4 (packet 4) at time 0.
0 | node15 | Enqueuing flit 5 (packet 5) at time 0.
0 | node18 | Enqueuing flit 6 (packet 6) at time 0.
0 | node19 | Enqueuing flit 7 (packet 7) at time 0.
0 | node20 | Enqueuing flit 8 (packet 8) at time 0.
0 | node30 | Enqueuing flit 9 (packet 9) at time 0.
0 | node31 | Enqueuing flit 10 (packet 10) at time 0.
0 | traffic_manager | Finding output VC for flit 1:
0 | traffic_manager |   Selected output VC 0.
0 | node11 | Generating lookahead routing info for flit 1.
0 | node11 | Injecting flit 1 into subnet 0 at time 0 with priority 0.
0 | traffic_manager | Finding output VC for flit 2:
0 | traffic_manager |   Selected output VC 0.
0 | node12 | Generating lookahead routing info for flit 2.
0 | node12 | Injecting flit 2 into subnet 0 at time 0 with priority 0.
0 | traffic_manager | Finding output VC for flit 3:
0 | traffic_manager |   Selected output VC 0.
0 | node13 | Generating lookahead routing info for flit 3.
0 | node13 | Injecting flit 3 into subnet 0 at time 0 with priority 0.
0 | traffic_manager | Finding output VC for flit 4:
0 | traffic_manager |   Selected output VC 0.
0 | node14 | Generating lookahead routing info for flit 4.
0 | node14 | Injecting flit 4 into subnet 0 at time 0 with priority 0.
0 | traffic_manager | Finding output VC for flit 5:
0 | traffic_manager |   Selected output VC 0.
0 | node15 | Generating lookahead routing info for flit 5.
0 | node15 | Injecting flit 5 into subnet 0 at time 0 with priority 0.
0 | traffic_manager | Finding output VC for flit 6:
0 | traffic_manager |   Selected output VC 0.
0 | node18 | Generating lookahead routing info for flit 6.
0 | node18 | Injecting flit 6 into subnet 0 at time 0 with priority 0.
0 | traffic_manager | Finding output VC for flit 7:
0 | traffic_manager |   Selected output VC 0.
0 | node19 | Generating lookahead routing info for flit 7.
0 | node19 | Injecting flit 7 into subnet 0 at time 0 with priority 0.
0 | traffic_manager | Finding output VC for flit 8:
0 | traffic_manager |   Selected output VC 0.
0 | node20 | Generating lookahead routing info for flit 8.
0 | node20 | Injecting flit 8 into subnet 0 at time 0 with priority 0.
0 | traffic_manager | Finding output VC for flit 9:
0 | traffic_manager |   Selected output VC 0.
0 | node30 | Generating lookahead routing info for flit 9.
0 | node30 | Injecting flit 9 into subnet 0 at time 0 with priority 0.
0 | traffic_manager | Finding output VC for flit 10:
0 | traffic_manager |   Selected output VC 0.
0 | node31 | Generating lookahead routing info for flit 10.
0 | node31 | Injecting flit 10 into subnet 0 at time 0 with priority 0.
1 | network_0/network_0_fchan_ingress11 | Beginning channel traversal for flit 1 with delay 1.
1 | network_0/network_0_fchan_ingress12 | Beginning channel traversal for flit 2 with delay 1.
1 | network_0/network_0_fchan_ingress13 | Beginning channel traversal for flit 3 with delay 1.
1 | network_0/network_0_fchan_ingress14 | Beginning channel traversal for flit 4 with delay 1.
1 | network_0/network_0_fchan_ingress15 | Beginning channel traversal for flit 5 with delay 1.
1 | network_0/network_0_fchan_ingress18 | Beginning channel traversal for flit 6 with delay 1.
1 | network_0/network_0_fchan_ingress19 | Beginning channel traversal for flit 7 with delay 1.
1 | network_0/network_0_fchan_ingress20 | Beginning channel traversal for flit 8 with delay 1.
1 | network_0/network_0_fchan_ingress30 | Beginning channel traversal for flit 9 with delay 1.
1 | network_0/network_0_fchan_ingress31 | Beginning channel traversal for flit 10 with delay 1.
1 | network_0/network_0_fchan_ingress11 | Completed channel traversal for flit 1.
1 | network_0/network_0_fchan_ingress12 | Completed channel traversal for flit 2.
1 | network_0/network_0_fchan_ingress13 | Completed channel traversal for flit 3.
1 | network_0/network_0_fchan_ingress14 | Completed channel traversal for flit 4.
1 | network_0/network_0_fchan_ingress15 | Completed channel traversal for flit 5.
1 | network_0/network_0_fchan_ingress18 | Completed channel traversal for flit 6.
1 | network_0/network_0_fchan_ingress19 | Completed channel traversal for flit 7.
1 | network_0/network_0_fchan_ingress20 | Completed channel traversal for flit 8.
1 | network_0/network_0_fchan_ingress30 | Completed channel traversal for flit 9.
1 | network_0/network_0_fchan_ingress31 | Completed channel traversal for flit 10.
2 | network_0/router_level3_1 | Received flit 1 from channel at input 3.
2 | network_0/router_level3_1 | Received flit 2 from channel at input 4.
2 | network_0/router_level3_1 | Received flit 3 from channel at input 5.
2 | network_0/router_level3_1 | Received flit 4 from channel at input 6.
2 | network_0/router_level3_1 | Received flit 5 from channel at input 7.
2 | network_0/router_level3_2 | Received flit 6 from channel at input 2.
2 | network_0/router_level3_2 | Received flit 7 from channel at input 3.
2 | network_0/router_level3_2 | Received flit 8 from channel at input 4.
2 | network_0/router_level3_3 | Received flit 9 from channel at input 6.
2 | network_0/router_level3_3 | Received flit 10 from channel at input 7.
2 | network_0/router_level3_1 | Adding flit 1 to VC 0 at input 3 (state: idle, empty).
2 | network_0/router_level3_1 | Using precomputed lookahead routing information for VC 0 at input 3 (front: 1).
2 | network_0/router_level3_1/buf_3/vc_0 | Changing state from idle to vc_alloc.
2 | network_0/router_level3_1 | Adding flit 2 to VC 0 at input 4 (state: idle, empty).
2 | network_0/router_level3_1 | Using precomputed lookahead routing information for VC 0 at input 4 (front: 2).
2 | network_0/router_level3_1/buf_4/vc_0 | Changing state from idle to vc_alloc.
2 | network_0/router_level3_1 | Adding flit 3 to VC 0 at input 5 (state: idle, empty).
2 | network_0/router_level3_1 | Using precomputed lookahead routing information for VC 0 at input 5 (front: 3).
2 | network_0/router_level3_1/buf_5/vc_0 | Changing state from idle to vc_alloc.
2 | network_0/router_level3_1 | Adding flit 4 to VC 0 at input 6 (state: idle, empty).
2 | network_0/router_level3_1 | Using precomputed lookahead routing information for VC 0 at input 6 (front: 4).
2 | network_0/router_level3_1/buf_6/vc_0 | Changing state from idle to vc_alloc.
2 | network_0/router_level3_1 | Adding flit 5 to VC 0 at input 7 (state: idle, empty).
2 | network_0/router_level3_1 | Using precomputed lookahead routing information for VC 0 at input 7 (front: 5).
2 | network_0/router_level3_1/buf_7/vc_0 | Changing state from idle to vc_alloc.
2 | network_0/router_level3_1 | Beginning VC allocation for VC 0 at input 3 (front: 1).
2 | network_0/router_level3_1 |   Requesting VC 0 at output 8 (in_pri: 0, out_pri: 0).
2 | network_0/router_level3_1 |   Requesting VC 1 at output 8 (in_pri: 0, out_pri: 0).
2 | network_0/router_level3_1 |   Requesting VC 2 at output 8 (in_pri: 0, out_pri: 0).
2 | network_0/router_level3_1 |   Requesting VC 3 at output 8 (in_pri: 0, out_pri: 0).
2 | network_0/router_level3_1 | Beginning VC allocation for VC 0 at input 4 (front: 2).
2 | network_0/router_level3_1 |   Requesting VC 0 at output 10 (in_pri: 0, out_pri: 0).
2 | network_0/router_level3_1 |   Requesting VC 1 at output 10 (in_pri: 0, out_pri: 0).
2 | network_0/router_level3_1 |   Requesting VC 2 at output 10 (in_pri: 0, out_pri: 0).
2 | network_0/router_level3_1 |   Requesting VC 3 at output 10 (in_pri: 0, out_pri: 0).
2 | network_0/router_level3_1 | Beginning VC allocation for VC 0 at input 5 (front: 3).
2 | network_0/router_level3_1 |   Requesting VC 0 at output 9 (in_pri: 0, out_pri: 0).
2 | network_0/router_level3_1 |   Requesting VC 1 at output 9 (in_pri: 0, out_pri: 0).
2 | network_0/router_level3_1 |   Requesting VC 2 at output 9 (in_pri: 0, out_pri: 0).
2 | network_0/router_level3_1 |   Requesting VC 3 at output 9 (in_pri: 0, out_pri: 0).
2 | network_0/router_level3_1 | Beginning VC allocation for VC 0 at input 6 (front: 4).
2 | network_0/router_level3_1 |   Requesting VC 0 at output 9 (in_pri: 0, out_pri: 0).
2 | network_0/router_level3_1 |   Requesting VC 1 at output 9 (in_pri: 0, out_pri: 0).
2 | network_0/router_level3_1 |   Requesting VC 2 at output 9 (in_pri: 0, out_pri: 0).
2 | network_0/router_level3_1 |   Requesting VC 3 at output 9 (in_pri: 0, out_pri: 0).
2 | network_0/router_level3_1 | Beginning VC allocation for VC 0 at input 7 (front: 5).
2 | network_0/router_level3_1 |   Requesting VC 0 at output 12 (in_pri: 0, out_pri: 0).
2 | network_0/router_level3_1 |   Requesting VC 1 at output 12 (in_pri: 0, out_pri: 0).
2 | network_0/router_level3_1 |   Requesting VC 2 at output 12 (in_pri: 0, out_pri: 0).
2 | network_0/router_level3_1 |   Requesting VC 3 at output 12 (in_pri: 0, out_pri: 0).
2 | network_0/router_level3_1/vc_allocator | Input requests = [ 4 -> [ 44@0 45@0 46@0 47@0 ]  12 -> [ 32@0 33@0 34@0 35@0 ]  16 -> [ 40@0 41@0 42@0 43@0 ]  20 -> [ 36@0 37@0 38@0 39@0 ]  24 -> [ 36@0 37@0 38@0 39@0 ]  28 -> [ 48@0 49@0 50@0 51@0 ]  ], output requests = [ 32 -> [ 12@0 ]  33 -> [ 12@0 ]  34 -> [ 12@0 ]  35 -> [ 12@0 ]  36 -> [ 20@0 24@0 ]  37 -> [ 20@0 24@0 ]  38 -> [ 20@0 24@0 ]  39 -> [ 20@0 24@0 ]  40 -> [ 16@0 ]  41 -> [ 16@0 ]  42 -> [ 16@0 ]  43 -> [ 16@0 ]  44 -> [ 4@0 ]  45 -> [ 4@0 ]  46 -> [ 4@0 ]  47 -> [ 4@0 ]  48 -> [ 28@0 ]  49 -> [ 28@0 ]  50 -> [ 28@0 ]  51 -> [ 28@0 ]  ].
2 | network_0/router_level3_1/vc_allocator | Input grants = [ 4 -> 44  12 -> 32  16 -> 40  20 -> 36  28 -> 48  ], output grants = [ 32 -> 12  36 -> 20  40 -> 16  44 -> 4  48 -> 28  ].
2 | network_0/router_level3_1 | Assigning VC 0 at output 8 to VC 0 at input 3.
2 | network_0/router_level3_1 | Assigning VC 0 at output 10 to VC 0 at input 4.
2 | network_0/router_level3_1 | Assigning VC 0 at output 9 to VC 0 at input 5.
2 | network_0/router_level3_1 | VC allocation failed for VC 0 at input 6.
2 | network_0/router_level3_1 | Assigning VC 0 at output 12 to VC 0 at input 7.
2 | network_0/router_level3_1 | Completed VC allocation for VC 0 at input 3 (front: 1).
2 | network_0/router_level3_1 |   Acquiring assigned VC 0 at output 8.
2 | network_0/router_level3_1/buf_3/vc_0 | Changing state from vc_alloc to active.
2 | network_0/router_level3_1 | Completed VC allocation for VC 0 at input 4 (front: 2).
2 | network_0/router_level3_1 |   Acquiring assigned VC 0 at output 10.
2 | network_0/router_level3_1/buf_4/vc_0 | Changing state from vc_alloc to active.
2 | network_0/router_level3_1 | Completed VC allocation for VC 0 at input 5 (front: 3).
2 | network_0/router_level3_1 |   Acquiring assigned VC 0 at output 9.
2 | network_0/router_level3_1/buf_5/vc_0 | Changing state from vc_alloc to active.
2 | network_0/router_level3_1 | Completed VC allocation for VC 0 at input 6 (front: 4).
2 | network_0/router_level3_1 |   No output VC allocated.
2 | network_0/router_level3_1 | Completed VC allocation for VC 0 at input 7 (front: 5).
2 | network_0/router_level3_1 |   Acquiring assigned VC 0 at output 12.
2 | network_0/router_level3_1/buf_7/vc_0 | Changing state from vc_alloc to active.
2 | network_0/router_level3_2 | Adding flit 6 to VC 0 at input 2 (state: idle, empty).
2 | network_0/router_level3_2 | Using precomputed lookahead routing information for VC 0 at input 2 (front: 6).
2 | network_0/router_level3_2/buf_2/vc_0 | Changing state from idle to vc_alloc.
2 | network_0/router_level3_2 | Adding flit 7 to VC 0 at input 3 (state: idle, empty).
2 | network_0/router_level3_2 | Using precomputed lookahead routing information for VC 0 at input 3 (front: 7).
2 | network_0/router_level3_2/buf_3/vc_0 | Changing state from idle to vc_alloc.
2 | network_0/router_level3_2 | Adding flit 8 to VC 0 at input 4 (state: idle, empty).
2 | network_0/router_level3_2 | Using precomputed lookahead routing information for VC 0 at input 4 (front: 8).
2 | network_0/router_level3_2/buf_4/vc_0 | Changing state from idle to vc_alloc.
2 | network_0/router_level3_2 | Beginning VC allocation for VC 0 at input 2 (front: 6).
2 | network_0/router_level3_2 |   Requesting VC 0 at output 12 (in_pri: 0, out_pri: 0).
2 | network_0/router_level3_2 |   Requesting VC 1 at output 12 (in_pri: 0, out_pri: 0).
2 | network_0/router_level3_2 |   Requesting VC 2 at output 12 (in_pri: 0, out_pri: 0).
2 | network_0/router_level3_2 |   Requesting VC 3 at output 12 (in_pri: 0, out_pri: 0).
2 | network_0/router_level3_2 | Beginning VC allocation for VC 0 at input 3 (front: 7).
2 | network_0/router_level3_2 |   Requesting VC 0 at output 11 (in_pri: 0, out_pri: 0).
2 | network_0/router_level3_2 |   Requesting VC 1 at output 11 (in_pri: 0, out_pri: 0).
2 | network_0/router_level3_2 |   Requesting VC 2 at output 11 (in_pri: 0, out_pri: 0).
2 | network_0/router_level3_2 |   Requesting VC 3 at output 11 (in_pri: 0, out_pri: 0).
2 | network_0/router_level3_2 | Beginning VC allocation for VC 0 at input 4 (front: 8).
2 | network_0/router_level3_2 |   Requesting VC 0 at output 14 (in_pri: 0, out_pri: 0).
2 | network_0/router_level3_2 |   Requesting VC 1 at output 14 (in_pri: 0, out_pri: 0).
2 | network_0/router_level3_2 |   Requesting VC 2 at output 14 (in_pri: 0, out_pri: 0).
2 | network_0/router_level3_2 |   Requesting VC 3 at output 14 (in_pri: 0, out_pri: 0).
2 | network_0/router_level3_2/vc_allocator | Input requests = [ 8 -> [ 48@0 49@0 50@0 51@0 ]  12 -> [ 44@0 45@0 46@0 47@0 ]  16 -> [ 56@0 57@0 58@0 59@0 ]  ], output requests = [ 44 -> [ 12@0 ]  45 -> [ 12@0 ]  46 -> [ 12@0 ]  47 -> [ 12@0 ]  48 -> [ 8@0 ]  49 -> [ 8@0 ]  50 -> [ 8@0 ]  51 -> [ 8@0 ]  56 -> [ 16@0 ]  57 -> [ 16@0 ]  58 -> [ 16@0 ]  59 -> [ 16@0 ]  ].
2 | network_0/router_level3_2/vc_allocator | Input grants = [ 8 -> 48  12 -> 44  16 -> 56  ], output grants = [ 44 -> 12  48 -> 8  56 -> 16  ].
2 | network_0/router_level3_2 | Assigning VC 0 at output 12 to VC 0 at input 2.
2 | network_0/router_level3_2 | Assigning VC 0 at output 11 to VC 0 at input 3.
2 | network_0/router_level3_2 | Assigning VC 0 at output 14 to VC 0 at input 4.
2 | network_0/router_level3_2 | Completed VC allocation for VC 0 at input 2 (front: 6).
2 | network_0/router_level3_2 |   Acquiring assigned VC 0 at output 12.
2 | network_0/router_level3_2/buf_2/vc_0 | Changing state from vc_alloc to active.
2 | network_0/router_level3_2 | Completed VC allocation for VC 0 at input 3 (front: 7).
2 | network_0/router_level3_2 |   Acquiring assigned VC 0 at output 11.
2 | network_0/router_level3_2/buf_3/vc_0 | Changing state from vc_alloc to active.
2 | network_0/router_level3_2 | Completed VC allocation for VC 0 at input 4 (front: 8).
2 | network_0/router_level3_2 |   Acquiring assigned VC 0 at output 14.
2 | network_0/router_level3_2/buf_4/vc_0 | Changing state from vc_alloc to active.
2 | network_0/router_level3_3 | Adding flit 9 to VC 0 at input 6 (state: idle, empty).
2 | network_0/router_level3_3 | Using precomputed lookahead routing information for VC 0 at input 6 (front: 9).
2 | network_0/router_level3_3/buf_6/vc_0 | Changing state from idle to vc_alloc.
2 | network_0/router_level3_3 | Adding flit 10 to VC 0 at input 7 (state: idle, empty).
2 | network_0/router_level3_3 | Using precomputed lookahead routing information for VC 0 at input 7 (front: 10).
2 | network_0/router_level3_3/buf_7/vc_0 | Changing state from idle to vc_alloc.
2 | network_0/router_level3_3 | Beginning VC allocation for VC 0 at input 6 (front: 9).
2 | network_0/router_level3_3 |   Requesting VC 0 at output 14 (in_pri: 0, out_pri: 0).
2 | network_0/router_level3_3 |   Requesting VC 1 at output 14 (in_pri: 0, out_pri: 0).
2 | network_0/router_level3_3 |   Requesting VC 2 at output 14 (in_pri: 0, out_pri: 0).
2 | network_0/router_level3_3 |   Requesting VC 3 at output 14 (in_pri: 0, out_pri: 0).
2 | network_0/router_level3_3 | Beginning VC allocation for VC 0 at input 7 (front: 10).
2 | network_0/router_level3_3 |   Requesting VC 0 at output 15 (in_pri: 0, out_pri: 0).
2 | network_0/router_level3_3 |   Requesting VC 1 at output 15 (in_pri: 0, out_pri: 0).
2 | network_0/router_level3_3 |   Requesting VC 2 at output 15 (in_pri: 0, out_pri: 0).
2 | network_0/router_level3_3 |   Requesting VC 3 at output 15 (in_pri: 0, out_pri: 0).
2 | network_0/router_level3_3/vc_allocator | Input requests = [ 24 -> [ 56@0 57@0 58@0 59@0 ]  28 -> [ 60@0 61@0 62@0 63@0 ]  ], output requests = [ 56 -> [ 24@0 ]  57 -> [ 24@0 ]  58 -> [ 24@0 ]  59 -> [ 24@0 ]  60 -> [ 28@0 ]  61 -> [ 28@0 ]  62 -> [ 28@0 ]  63 -> [ 28@0 ]  ].
2 | network_0/router_level3_3/vc_allocator | Input grants = [ 24 -> 56  28 -> 60  ], output grants = [ 56 -> 24  60 -> 28  ].
2 | network_0/router_level3_3 | Assigning VC 0 at output 14 to VC 0 at input 6.
2 | network_0/router_level3_3 | Assigning VC 0 at output 15 to VC 0 at input 7.
2 | network_0/router_level3_3 | Completed VC allocation for VC 0 at input 6 (front: 9).
2 | network_0/router_level3_3 |   Acquiring assigned VC 0 at output 14.
2 | network_0/router_level3_3/buf_6/vc_0 | Changing state from vc_alloc to active.
2 | network_0/router_level3_3 | Completed VC allocation for VC 0 at input 7 (front: 10).
2 | network_0/router_level3_3 |   Acquiring assigned VC 0 at output 15.
2 | network_0/router_level3_3/buf_7/vc_0 | Changing state from vc_alloc to active.
3 | network_0/router_level3_1 | Beginning VC allocation for VC 0 at input 6 (front: 4).
3 | network_0/router_level3_1 |   VC 0 at output 9 is in use by VC 0 at input 5 (front flit: 3).
3 | network_0/router_level3_1 |   Requesting VC 1 at output 9 (in_pri: 0, out_pri: 0).
3 | network_0/router_level3_1 |   Requesting VC 2 at output 9 (in_pri: 0, out_pri: 0).
3 | network_0/router_level3_1 |   Requesting VC 3 at output 9 (in_pri: 0, out_pri: 0).
3 | network_0/router_level3_1/vc_allocator | Input requests = [ 5 -> [ 60@0 61@0 62@0 63@0 ]  17 -> [ 45@0 46@0 47@0 ]  21 -> [ 41@0 42@0 43@0 ]  24 -> [ 37@0 38@0 39@0 ]  25 -> [ 60@0 61@0 62@0 63@0 ]  ], output requests = [ 37 -> [ 24@0 ]  38 -> [ 24@0 ]  39 -> [ 24@0 ]  41 -> [ 21@0 ]  42 -> [ 21@0 ]  43 -> [ 21@0 ]  45 -> [ 17@0 ]  46 -> [ 17@0 ]  47 -> [ 17@0 ]  60 -> [ 5@0 25@0 ]  61 -> [ 5@0 25@0 ]  62 -> [ 5@0 25@0 ]  63 -> [ 5@0 25@0 ]  ].
3 | network_0/router_level3_1/vc_allocator | Input grants = [ 5 -> 60  17 -> 45  21 -> 41  24 -> 37  ], output grants = [ 37 -> 24  41 -> 21  45 -> 17  60 -> 5  ].
3 | network_0/router_level3_1 | Assigning VC 1 at output 9 to VC 0 at input 6.
3 | network_0/router_level3_1 | Beginning switch allocation for VC 0 at input 3 (front: 1).
3 | network_0/router_level3_1 |   Requesting output 8.0 (non-spec, pri: 0).
3 | network_0/router_level3_1 | Beginning switch allocation for VC 0 at input 4 (front: 2).
3 | network_0/router_level3_1 |   Requesting output 10.0 (non-spec, pri: 0).
3 | network_0/router_level3_1 | Beginning switch allocation for VC 0 at input 5 (front: 3).
3 | network_0/router_level3_1 |   Requesting output 9.0 (non-spec, pri: 0).
3 | network_0/router_level3_1 | Beginning switch allocation for VC 0 at input 7 (front: 5).
3 | network_0/router_level3_1 |   Requesting output 12.0 (non-spec, pri: 0).
3 | network_0/router_level3_1/sw_allocator | Input requests = [ 1 -> [ 11@0 ]  3 -> [ 8@0 ]  4 -> [ 10@0 ]  5 -> [ 9@0 ]  7 -> [ 12@0 ]  ], output requests = [ 8 -> [ 3@0 ]  9 -> [ 5@0 ]  10 -> [ 4@0 ]  11 -> [ 1@0 ]  12 -> [ 7@0 ]  ].
3 | network_0/router_level3_1/sw_allocator | Input grants = [ 1 -> 11  3 -> 8  4 -> 10  5 -> 9  7 -> 12  ], output grants = [ 8 -> 3  9 -> 5  10 -> 4  11 -> 1  12 -> 7  ].
3 | network_0/router_level3_1 | Assigning output 8.0 to VC 0 at input 3.0.
3 | network_0/router_level3_1 | Assigning output 10.0 to VC 0 at input 4.0.
3 | network_0/router_level3_1 | Assigning output 9.0 to VC 0 at input 5.0.
3 | network_0/router_level3_1 | Assigning output 12.0 to VC 0 at input 7.0.
3 | network_0/router_level3_1 | Completed VC allocation for VC 0 at input 6 (front: 4).
3 | network_0/router_level3_1 |   Acquiring assigned VC 1 at output 9.
3 | network_0/router_level3_1/buf_6/vc_0 | Changing state from vc_alloc to active.
3 | network_0/router_level3_1 | Completed switch allocation for VC 0 at input 3 (front: 1).
3 | network_0/router_level3_1 |   Scheduling switch connection from input 3.0 to output 8.0.
3 | network_0/router_level3_1 | Updating lookahead routing information for flit 1.
3 | network_0/router_level3_1 | Completed switch allocation for VC 0 at input 4 (front: 2).
3 | network_0/router_level3_1 |   Scheduling switch connection from input 4.0 to output 10.0.
3 | network_0/router_level3_1 | Updating lookahead routing information for flit 2.
3 | network_0/router_level3_1 | Completed switch allocation for VC 0 at input 5 (front: 3).
3 | network_0/router_level3_1 |   Scheduling switch connection from input 5.0 to output 9.0.
3 | network_0/router_level3_1 | Updating lookahead routing information for flit 3.
3 | network_0/router_level3_1 | Completed switch allocation for VC 0 at input 7 (front: 5).
3 | network_0/router_level3_1 |   Scheduling switch connection from input 7.0 to output 12.0.
3 | network_0/router_level3_1 | Updating lookahead routing information for flit 5.
3 | network_0/router_level3_2 | Beginning switch allocation for VC 0 at input 2 (front: 6).
3 | network_0/router_level3_2 |   Requesting output 12.0 (non-spec, pri: 0).
3 | network_0/router_level3_2 | Beginning switch allocation for VC 0 at input 3 (front: 7).
3 | network_0/router_level3_2 |   Requesting output 11.0 (non-spec, pri: 0).
3 | network_0/router_level3_2 | Beginning switch allocation for VC 0 at input 4 (front: 8).
3 | network_0/router_level3_2 |   Requesting output 14.0 (non-spec, pri: 0).
3 | network_0/router_level3_2/sw_allocator | Input requests = [ 2 -> [ 12@0 ]  3 -> [ 11@0 ]  4 -> [ 14@0 ]  ], output requests = [ 11 -> [ 3@0 ]  12 -> [ 2@0 ]  14 -> [ 4@0 ]  ].
3 | network_0/router_level3_2/sw_allocator | Input grants = [ 2 -> 12  3 -> 11  4 -> 14  ], output grants = [ 11 -> 3  12 -> 2  14 -> 4  ].
3 | network_0/router_level3_2 | Assigning output 12.0 to VC 0 at input 2.0.
3 | network_0/router_level3_2 | Assigning output 11.0 to VC 0 at input 3.0.
3 | network_0/router_level3_2 | Assigning output 14.0 to VC 0 at input 4.0.
3 | network_0/router_level3_2 | Completed switch allocation for VC 0 at input 2 (front: 6).
3 | network_0/router_level3_2 |   Scheduling switch connection from input 2.0 to output 12.0.
3 | network_0/router_level3_2 | Updating lookahead routing information for flit 6.
3 | network_0/router_level3_2 | Completed switch allocation for VC 0 at input 3 (front: 7).
3 | network_0/router_level3_2 |   Scheduling switch connection from input 3.0 to output 11.0.
3 | network_0/router_level3_2 | Updating lookahead routing information for flit 7.
3 | network_0/router_level3_2 | Completed switch allocation for VC 0 at input 4 (front: 8).
3 | network_0/router_level3_2 |   Scheduling switch connection from input 4.0 to output 14.0.
3 | network_0/router_level3_2 | Updating lookahead routing information for flit 8.
3 | network_0/router_level3_3 | Beginning switch allocation for VC 0 at input 6 (front: 9).
3 | network_0/router_level3_3 |   Requesting output 14.0 (non-spec, pri: 0).
3 | network_0/router_level3_3 | Beginning switch allocation for VC 0 at input 7 (front: 10).
3 | network_0/router_level3_3 |   Requesting output 15.0 (non-spec, pri: 0).
3 | network_0/router_level3_3/sw_allocator | Input requests = [ 6 -> [ 14@0 ]  7 -> [ 15@0 ]  ], output requests = [ 14 -> [ 6@0 ]  15 -> [ 7@0 ]  ].
3 | network_0/router_level3_3/sw_allocator | Input grants = [ 6 -> 14  7 -> 15  ], output grants = [ 14 -> 6  15 -> 7  ].
3 | network_0/router_level3_3 | Assigning output 14.0 to VC 0 at input 6.0.
3 | network_0/router_level3_3 | Assigning output 15.0 to VC 0 at input 7.0.
3 | network_0/router_level3_3 | Completed switch allocation for VC 0 at input 6 (front: 9).
3 | network_0/router_level3_3 |   Scheduling switch connection from input 6.0 to output 14.0.
3 | network_0/router_level3_3 | Updating lookahead routing information for flit 9.
3 | network_0/router_level3_3 | Completed switch allocation for VC 0 at input 7 (front: 10).
3 | network_0/router_level3_3 |   Scheduling switch connection from input 7.0 to output 15.0.
3 | network_0/router_level3_3 | Updating lookahead routing information for flit 10.
4 | network_0/router_level3_1 | Beginning switch allocation for VC 0 at input 6 (front: 4).
4 | network_0/router_level3_1 |   Requesting output 9.0 (non-spec, pri: 0).
4 | network_0/router_level3_1/sw_allocator | Input requests = [ 1 -> [ 15@0 ]  4 -> [ 11@0 ]  5 -> [ 10@0 ]  6 -> [ 9@0 ]  ], output requests = [ 9 -> [ 6@0 ]  10 -> [ 5@0 ]  11 -> [ 4@0 ]  15 -> [ 1@0 ]  ].
4 | network_0/router_level3_1/sw_allocator | Input grants = [ 1 -> 15  4 -> 11  5 -> 10  6 -> 9  ], output grants = [ 9 -> 6  10 -> 5  11 -> 4  15 -> 1  ].
4 | network_0/router_level3_1 | Assigning output 9.0 to VC 0 at input 6.0.
4 | network_0/router_level3_1 | Beginning crossbar traversal for flit 1 from input 3.0 to output 8.0.
4 | network_0/router_level3_1 | Beginning crossbar traversal for flit 2 from input 4.0 to output 10.0.
4 | network_0/router_level3_1 | Beginning crossbar traversal for flit 3 from input 5.0 to output 9.0.
4 | network_0/router_level3_1 | Beginning crossbar traversal for flit 5 from input 7.0 to output 12.0.
4 | network_0/router_level3_1 | Completed switch allocation for VC 0 at input 6 (front: 4).
4 | network_0/router_level3_1 |   Scheduling switch connection from input 6.0 to output 9.0.
4 | network_0/router_level3_1 | Updating lookahead routing information for flit 4.
4 | network_0/router_level3_1 | Completed crossbar traversal for flit 1 from input 3.0 to output 8.0.
4 | network_0/router_level3_1 | Buffering flit 1 at output 8.
4 | network_0/router_level3_1 | Completed crossbar traversal for flit 2 from input 4.0 to output 10.0.
4 | network_0/router_level3_1 | Buffering flit 2 at output 10.
4 | network_0/router_level3_1 | Completed crossbar traversal for flit 3 from input 5.0 to output 9.0.
4 | network_0/router_level3_1 | Buffering flit 3 at output 9.
4 | network_0/router_level3_1 | Completed crossbar traversal for flit 5 from input 7.0 to output 12.0.
4 | network_0/router_level3_1 | Buffering flit 5 at output 12.
4 | network_0/router_level3_2 | Beginning crossbar traversal for flit 6 from input 2.0 to output 12.0.
4 | network_0/router_level3_2 | Beginning crossbar traversal for flit 7 from input 3.0 to output 11.0.
4 | network_0/router_level3_2 | Beginning crossbar traversal for flit 8 from input 4.0 to output 14.0.
4 | network_0/router_level3_2 | Completed crossbar traversal for flit 6 from input 2.0 to output 12.0.
4 | network_0/router_level3_2 | Buffering flit 6 at output 12.
4 | network_0/router_level3_2 | Completed crossbar traversal for flit 7 from input 3.0 to output 11.0.
4 | network_0/router_level3_2 | Buffering flit 7 at output 11.
4 | network_0/router_level3_2 | Completed crossbar traversal for flit 8 from input 4.0 to output 14.0.
4 | network_0/router_level3_2 | Buffering flit 8 at output 14.
4 | network_0/router_level3_3 | Beginning crossbar traversal for flit 9 from input 6.0 to output 14.0.
4 | network_0/router_level3_3 | Beginning crossbar traversal for flit 10 from input 7.0 to output 15.0.
4 | network_0/router_level3_3 | Completed crossbar traversal for flit 9 from input 6.0 to output 14.0.
4 | network_0/router_level3_3 | Buffering flit 9 at output 14.
4 | network_0/router_level3_3 | Completed crossbar traversal for flit 10 from input 7.0 to output 15.0.
4 | network_0/router_level3_3 | Buffering flit 10 at output 15.
4 | network_0/router_level3_1 | Sending flit 1 to channel at output 8.
4 | network_0/router_level3_1 | Sending flit 3 to channel at output 9.
4 | network_0/router_level3_1 | Sending flit 2 to channel at output 10.
4 | network_0/router_level3_1 | Sending flit 5 to channel at output 12.
4 | network_0/router_level3_2 | Sending flit 7 to channel at output 11.
4 | network_0/router_level3_2 | Sending flit 6 to channel at output 12.
4 | network_0/router_level3_2 | Sending flit 8 to channel at output 14.
4 | network_0/router_level3_3 | Sending flit 9 to channel at output 14.
4 | network_0/router_level3_3 | Sending flit 10 to channel at output 15.
5 | network_0/network_0_fchan_20488 | Beginning channel traversal for flit 1 with delay 1.
5 | network_0/network_0_fchan_20489 | Beginning channel traversal for flit 3 with delay 1.
5 | network_0/network_0_fchan_20490 | Beginning channel traversal for flit 2 with delay 1.
5 | network_0/network_0_fchan_20492 | Beginning channel traversal for flit 5 with delay 1.
5 | network_0/network_0_fchan_20499 | Beginning channel traversal for flit 7 with delay 1.
5 | network_0/network_0_fchan_20500 | Beginning channel traversal for flit 6 with delay 1.
5 | network_0/network_0_fchan_20502 | Beginning channel traversal for flit 8 with delay 1.
5 | network_0/network_0_fchan_20510 | Beginning channel traversal for flit 9 with delay 1.
5 | network_0/network_0_fchan_20511 | Beginning channel traversal for flit 10 with delay 1.
5 | network_0/router_level3_1 | Beginning crossbar traversal for flit 4 from input 6.0 to output 9.0.
5 | network_0/router_level3_1 | Completed crossbar traversal for flit 4 from input 6.0 to output 9.0.
5 | network_0/router_level3_1 | Buffering flit 4 at output 9.
5 | network_0/network_0_fchan_20488 | Completed channel traversal for flit 1.
5 | network_0/network_0_fchan_20489 | Completed channel traversal for flit 3.
5 | network_0/network_0_fchan_20490 | Completed channel traversal for flit 2.
5 | network_0/network_0_fchan_20492 | Completed channel traversal for flit 5.
5 | network_0/network_0_fchan_20499 | Completed channel traversal for flit 7.
5 | network_0/network_0_fchan_20500 | Completed channel traversal for flit 6.
5 | network_0/network_0_fchan_20502 | Completed channel traversal for flit 8.
5 | network_0/network_0_fchan_20510 | Completed channel traversal for flit 9.
5 | network_0/network_0_fchan_20511 | Completed channel traversal for flit 10.
5 | network_0/router_level3_1 | Sending flit 4 to channel at output 9.
6 | network_0/network_0_fchan_20489 | Beginning channel traversal for flit 4 with delay 1.
6 | network_0/router_level2_0 | Received flit 1 from channel at input 1.
6 | network_0/router_level2_1 | Received flit 3 from channel at input 1.
6 | network_0/router_level2_2 | Received flit 2 from channel at input 1.
6 | network_0/router_level2_3 | Received flit 7 from channel at input 2.
6 | network_0/router_level2_4 | Received flit 5 from channel at input 1.
6 | network_0/router_level2_4 | Received flit 6 from channel at input 2.
6 | network_0/router_level2_6 | Received flit 8 from channel at input 2.
6 | network_0/router_level2_6 | Received flit 9 from channel at input 3.
6 | network_0/router_level2_7 | Received flit 10 from channel at input 3.
6 | network_0/router_level2_0 | Adding flit 1 to VC 0 at input 1 (state: idle, empty).
6 | network_0/router_level2_0 | Using precomputed lookahead routing information for VC 0 at input 1 (front: 1).
6 | network_0/router_level2_0/buf_1/vc_0 | Changing state from idle to vc_alloc.
6 | network_0/router_level2_0 | Beginning VC allocation for VC 0 at input 1 (front: 1).
6 | network_0/router_level2_0 |   Requesting VC 0 at output 15 (in_pri: 0, out_pri: 0).
6 | network_0/router_level2_0 |   Requesting VC 1 at output 15 (in_pri: 0, out_pri: 0).
6 | network_0/router_level2_0 |   Requesting VC 2 at output 15 (in_pri: 0, out_pri: 0).
6 | network_0/router_level2_0 |   Requesting VC 3 at output 15 (in_pri: 0, out_pri: 0).
6 | network_0/router_level2_0/vc_allocator | Input requests = [ 4 -> [ 60@0 61@0 62@0 63@0 ]  ], output requests = [ 60 -> [ 4@0 ]  61 -> [ 4@0 ]  62 -> [ 4@0 ]  63 -> [ 4@0 ]  ].
6 | network_0/router_level2_0/vc_allocator | Input grants = [ 4 -> 60  ], output grants = [ 60 -> 4  ].
6 | network_0/router_level2_0 | Assigning VC 0 at output 15 to VC 0 at input 1.
6 | network_0/router_level2_0 | Completed VC allocation for VC 0 at input 1 (front: 1).
6 | network_0/router_level2_0 |   Acquiring assigned VC 0 at output 15.
6 | network_0/router_level2_0/buf_1/vc_0 | Changing state from vc_alloc to active.
6 | network_0/router_level2_1 | Adding flit 3 to VC 0 at input 1 (state: idle, empty).
6 | network_0/router_level2_1 | Using precomputed lookahead routing information for VC 0 at input 1 (front: 3).
6 | network_0/router_level2_1/buf_1/vc_0 | Changing state from idle to vc_alloc.
6 | network_0/router_level2_1 | Beginning VC allocation for VC 0 at input 1 (front: 3).
6 | network_0/router_level2_1 |   Requesting VC 0 at output 9 (in_pri: 0, out_pri: 0).
6 | network_0/router_level2_1 |   Requesting VC 1 at output 9 (in_pri: 0, out_pri: 0).
6 | network_0/router_level2_1 |   Requesting VC 2 at output 9 (in_pri: 0, out_pri: 0).
6 | network_0/router_level2_1 |   Requesting VC 3 at output 9 (in_pri: 0, out_pri: 0).
6 | network_0/router_level2_1/vc_allocator | Input requests = [ 4 -> [ 36@0 37@0 38@0 39@0 ]  24 -> [ 32@0 33@0 34@0 35@0 ]  ], output requests = [ 32 -> [ 24@0 ]  33 -> [ 24@0 ]  34 -> [ 24@0 ]  35 -> [ 24@0 ]  36 -> [ 4@0 ]  37 -> [ 4@0 ]  38 -> [ 4@0 ]  39 -> [ 4@0 ]  ].
6 | network_0/router_level2_1/vc_allocator | Input grants = [ 4 -> 36  24 -> 32  ], output grants = [ 32 -> 24  36 -> 4  ].
6 | network_0/router_level2_1 | Assigning VC 0 at output 9 to VC 0 at input 1.
6 | network_0/router_level2_1 | Completed VC allocation for VC 0 at input 1 (front: 3).
6 | network_0/router_level2_1 |   Acquiring assigned VC 0 at output 9.
6 | network_0/router_level2_1/buf_1/vc_0 | Changing state from vc_alloc to active.
6 | network_0/router_level2_2 | Adding flit 2 to VC 0 at input 1 (state: idle, empty).
6 | network_0/router_level2_2 | Using precomputed lookahead routing information for VC 0 at input 1 (front: 2).
6 | network_0/router_level2_2/buf_1/vc_0 | Changing state from idle to vc_alloc.
6 | network_0/router_level2_2 | Beginning VC allocation for VC 0 at input 1 (front: 2).
6 | network_0/router_level2_2 |   Requesting VC 0 at output 8 (in_pri: 0, out_pri: 0).
6 | network_0/router_level2_2 |   Requesting VC 1 at output 8 (in_pri: 0, out_pri: 0).
6 | network_0/router_level2_2 |   Requesting VC 2 at output 8 (in_pri: 0, out_pri: 0).
6 | network_0/router_level2_2 |   Requesting VC 3 at output 8 (in_pri: 0, out_pri: 0).
6 | network_0/router_level2_2/vc_allocator | Input requests = [ 4 -> [ 32@0 33@0 34@0 35@0 ]  24 -> [ 32@0 33@0 34@0 35@0 ]  28 -> [ 40@0 41@0 42@0 43@0 ]  ], output requests = [ 32 -> [ 4@0 24@0 ]  33 -> [ 4@0 24@0 ]  34 -> [ 4@0 24@0 ]  35 -> [ 4@0 24@0 ]  40 -> [ 28@0 ]  41 -> [ 28@0 ]  42 -> [ 28@0 ]  43 -> [ 28@0 ]  ].
6 | network_0/router_level2_2/vc_allocator | Input grants = [ 4 -> 32  28 -> 40  ], output grants = [ 32 -> 4  40 -> 28  ].
6 | network_0/router_level2_2 | Assigning VC 0 at output 8 to VC 0 at input 1.
6 | network_0/router_level2_2 | Completed VC allocation for VC 0 at input 1 (front: 2).
6 | network_0/router_level2_2 |   Acquiring assigned VC 0 at output 8.
6 | network_0/router_level2_2/buf_1/vc_0 | Changing state from vc_alloc to active.
6 | network_0/router_level2_3 | Adding flit 7 to VC 0 at input 2 (state: idle, empty).
6 | network_0/router_level2_3 | Using precomputed lookahead routing information for VC 0 at input 2 (front: 7).
6 | network_0/router_level2_3/buf_2/vc_0 | Changing state from idle to vc_alloc.
6 | network_0/router_level2_3 | Beginning VC allocation for VC 0 at input 2 (front: 7).
6 | network_0/router_level2_3 |   Requesting VC 0 at output 13 (in_pri: 0, out_pri: 0).
6 | network_0/router_level2_3 |   Requesting VC 1 at output 13 (in_pri: 0, out_pri: 0).
6 | network_0/router_level2_3 |   Requesting VC 2 at output 13 (in_pri: 0, out_pri: 0).
6 | network_0/router_level2_3 |   Requesting VC 3 at output 13 (in_pri: 0, out_pri: 0).
6 | network_0/router_level2_3/vc_allocator | Input requests = [ 4 -> [ 60@0 61@0 62@0 63@0 ]  8 -> [ 52@0 53@0 54@0 55@0 ]  28 -> [ 44@0 45@0 46@0 47@0 ]  ], output requests = [ 44 -> [ 28@0 ]  45 -> [ 28@0 ]  46 -> [ 28@0 ]  47 -> [ 28@0 ]  52 -> [ 8@0 ]  53 -> [ 8@0 ]  54 -> [ 8@0 ]  55 -> [ 8@0 ]  60 -> [ 4@0 ]  61 -> [ 4@0 ]  62 -> [ 4@0 ]  63 -> [ 4@0 ]  ].
6 | network_0/router_level2_3/vc_allocator | Input grants = [ 4 -> 60  8 -> 52  28 -> 44  ], output grants = [ 44 -> 28  52 -> 8  60 -> 4  ].
6 | network_0/router_level2_3 | Assigning VC 0 at output 13 to VC 0 at input 2.
6 | network_0/router_level2_3 | Completed VC allocation for VC 0 at input 2 (front: 7).
6 | network_0/router_level2_3 |   Acquiring assigned VC 0 at output 13.
6 | network_0/router_level2_3/buf_2/vc_0 | Changing state from vc_alloc to active.
6 | network_0/router_level2_4 | Adding flit 5 to VC 0 at input 1 (state: idle, empty).
6 | network_0/router_level2_4 | Using precomputed lookahead routing information for VC 0 at input 1 (front: 5).
6 | network_0/router_level2_4/buf_1/vc_0 | Changing state from idle to vc_alloc.
6 | network_0/router_level2_4 | Adding flit 6 to VC 0 at input 2 (state: idle, empty).
6 | network_0/router_level2_4 | Using precomputed lookahead routing information for VC 0 at input 2 (front: 6).
6 | network_0/router_level2_4/buf_2/vc_0 | Changing state from idle to vc_alloc.
6 | network_0/router_level2_4 | Beginning VC allocation for VC 0 at input 1 (front: 5).
6 | network_0/router_level2_4 |   Requesting VC 0 at output 15 (in_pri: 0, out_pri: 0).
6 | network_0/router_level2_4 |   Requesting VC 1 at output 15 (in_pri: 0, out_pri: 0).
6 | network_0/router_level2_4 |   Requesting VC 2 at output 15 (in_pri: 0, out_pri: 0).
6 | network_0/router_level2_4 |   Requesting VC 3 at output 15 (in_pri: 0, out_pri: 0).
6 | network_0/router_level2_4 | Beginning VC allocation for VC 0 at input 2 (front: 6).
6 | network_0/router_level2_4 |   Requesting VC 0 at output 9 (in_pri: 0, out_pri: 0).
6 | network_0/router_level2_4 |   Requesting VC 1 at output 9 (in_pri: 0, out_pri: 0).
6 | network_0/router_level2_4 |   Requesting VC 2 at output 9 (in_pri: 0, out_pri: 0).
6 | network_0/router_level2_4 |   Requesting VC 3 at output 9 (in_pri: 0, out_pri: 0).
6 | network_0/router_level2_4/vc_allocator | Input requests = [ 4 -> [ 60@0 61@0 62@0 63@0 ]  8 -> [ 36@0 37@0 38@0 39@0 ]  28 -> [ 56@0 57@0 58@0 59@0 ]  ], output requests = [ 36 -> [ 8@0 ]  37 -> [ 8@0 ]  38 -> [ 8@0 ]  39 -> [ 8@0 ]  56 -> [ 28@0 ]  57 -> [ 28@0 ]  58 -> [ 28@0 ]  59 -> [ 28@0 ]  60 -> [ 4@0 ]  61 -> [ 4@0 ]  62 -> [ 4@0 ]  63 -> [ 4@0 ]  ].
6 | network_0/router_level2_4/vc_allocator | Input grants = [ 4 -> 60  8 -> 36  28 -> 56  ], output grants = [ 36 -> 8  56 -> 28  60 -> 4  ].
6 | network_0/router_level2_4 | Assigning VC 0 at output 15 to VC 0 at input 1.
6 | network_0/router_level2_4 | Assigning VC 0 at output 9 to VC 0 at input 2.
6 | network_0/router_level2_4 | Completed VC allocation for VC 0 at input 1 (front: 5).
6 | network_0/router_level2_4 |   Acquiring assigned VC 0 at output 15.
6 | network_0/router_level2_4/buf_1/vc_0 | Changing state from vc_alloc to active.
6 | network_0/router_level2_4 | Completed VC allocation for VC 0 at input 2 (front: 6).
6 | network_0/router_level2_4 |   Acquiring assigned VC 0 at output 9.
6 | network_0/router_level2_4/buf_2/vc_0 | Changing state from vc_alloc to active.
6 | network_0/router_level2_6 | Adding flit 8 to VC 0 at input 2 (state: idle, empty).
6 | network_0/router_level2_6 | Using precomputed lookahead routing information for VC 0 at input 2 (front: 8).
6 | network_0/router_level2_6/buf_2/vc_0 | Changing state from idle to vc_alloc.
6 | network_0/router_level2_6 | Adding flit 9 to VC 0 at input 3 (state: idle, empty).
6 | network_0/router_level2_6 | Using precomputed lookahead routing information for VC 0 at input 3 (front: 9).
6 | network_0/router_level2_6/buf_3/vc_0 | Changing state from idle to vc_alloc.
6 | network_0/router_level2_6 | Beginning VC allocation for VC 0 at input 2 (front: 8).
6 | network_0/router_level2_6 |   Requesting VC 0 at output 12 (in_pri: 0, out_pri: 0).
6 | network_0/router_level2_6 |   Requesting VC 1 at output 12 (in_pri: 0, out_pri: 0).
6 | network_0/router_level2_6 |   Requesting VC 2 at output 12 (in_pri: 0, out_pri: 0).
6 | network_0/router_level2_6 |   Requesting VC 3 at output 12 (in_pri: 0, out_pri: 0).
6 | network_0/router_level2_6 | Beginning VC allocation for VC 0 at input 3 (front: 9).
6 | network_0/router_level2_6 |   Requesting VC 0 at output 11 (in_pri: 0, out_pri: 0).
6 | network_0/router_level2_6 |   Requesting VC 1 at output 11 (in_pri: 0, out_pri: 0).
6 | network_0/router_level2_6 |   Requesting VC 2 at output 11 (in_pri: 0, out_pri: 0).
6 | network_0/router_level2_6 |   Requesting VC 3 at output 11 (in_pri: 0, out_pri: 0).
6 | network_0/router_level2_6/vc_allocator | Input requests = [ 8 -> [ 48@0 49@0 50@0 51@0 ]  12 -> [ 44@0 45@0 46@0 47@0 ]  20 -> [ 32@0 33@0 34@0 35@0 ]  ], output requests = [ 32 -> [ 20@0 ]  33 -> [ 20@0 ]  34 -> [ 20@0 ]  35 -> [ 20@0 ]  44 -> [ 12@0 ]  45 -> [ 12@0 ]  46 -> [ 12@0 ]  47 -> [ 12@0 ]  48 -> [ 8@0 ]  49 -> [ 8@0 ]  50 -> [ 8@0 ]  51 -> [ 8@0 ]  ].
6 | network_0/router_level2_6/vc_allocator | Input grants = [ 8 -> 48  12 -> 44  20 -> 32  ], output grants = [ 32 -> 20  44 -> 12  48 -> 8  ].
6 | network_0/router_level2_6 | Assigning VC 0 at output 12 to VC 0 at input 2.
6 | network_0/router_level2_6 | Assigning VC 0 at output 11 to VC 0 at input 3.
6 | network_0/router_level2_6 | Completed VC allocation for VC 0 at input 2 (front: 8).
6 | network_0/router_level2_6 |   Acquiring assigned VC 0 at output 12.
6 | network_0/router_level2_6/buf_2/vc_0 | Changing state from vc_alloc to active.
6 | network_0/router_level2_6 | Completed VC allocation for VC 0 at input 3 (front: 9).
6 | network_0/router_level2_6 |   Acquiring assigned VC 0 at output 11.
6 | network_0/router_level2_6/buf_3/vc_0 | Changing state from vc_alloc to active.
6 | network_0/router_level2_7 | Adding flit 10 to VC 0 at input 3 (state: idle, empty).
6 | network_0/router_level2_7 | Using precomputed lookahead routing information for VC 0 at input 3 (front: 10).
6 | network_0/router_level2_7/buf_3/vc_0 | Changing state from idle to vc_alloc.
6 | network_0/router_level2_7 | Beginning VC allocation for VC 0 at input 3 (front: 10).
6 | network_0/router_level2_7 |   Requesting VC 0 at output 9 (in_pri: 0, out_pri: 0).
6 | network_0/router_level2_7 |   Requesting VC 1 at output 9 (in_pri: 0, out_pri: 0).
6 | network_0/router_level2_7 |   Requesting VC 2 at output 9 (in_pri: 0, out_pri: 0).
6 | network_0/router_level2_7 |   Requesting VC 3 at output 9 (in_pri: 0, out_pri: 0).
6 | network_0/router_level2_7/vc_allocator | Input requests = [ 12 -> [ 36@0 37@0 38@0 39@0 ]  20 -> [ 44@0 45@0 46@0 47@0 ]  ], output requests = [ 36 -> [ 12@0 ]  37 -> [ 12@0 ]  38 -> [ 12@0 ]  39 -> [ 12@0 ]  44 -> [ 20@0 ]  45 -> [ 20@0 ]  46 -> [ 20@0 ]  47 -> [ 20@0 ]  ].
6 | network_0/router_level2_7/vc_allocator | Input grants = [ 12 -> 36  20 -> 44  ], output grants = [ 36 -> 12  44 -> 20  ].
6 | network_0/router_level2_7 | Assigning VC 0 at output 9 to VC 0 at input 3.
6 | network_0/router_level2_7 | Completed VC allocation for VC 0 at input 3 (front: 10).
6 | network_0/router_level2_7 |   Acquiring assigned VC 0 at output 9.
6 | network_0/router_level2_7/buf_3/vc_0 | Changing state from vc_alloc to active.
6 | network_0/network_0_fchan_20489 | Completed channel traversal for flit 4.
7 | network_0/router_level2_1 | Received flit 4 from channel at input 1.
7 | network_0/router_level2_0 | Beginning switch allocation for VC 0 at input 1 (front: 1).
7 | network_0/router_level2_0 |   Requesting output 15.0 (non-spec, pri: 0).
7 | network_0/router_level2_0/sw_allocator | Input requests = [ 1 -> [ 15@0 ]  ], output requests = [ 15 -> [ 1@0 ]  ].
7 | network_0/router_level2_0/sw_allocator | Input grants = [ 1 -> 15  ], output grants = [ 15 -> 1  ].
7 | network_0/router_level2_0 | Assigning output 15.0 to VC 0 at input 1.0.
7 | network_0/router_level2_0 | Completed switch allocation for VC 0 at input 1 (front: 1).
7 | network_0/router_level2_0 |   Scheduling switch connection from input 1.0 to output 15.0.
7 | network_0/router_level2_0 | Updating lookahead routing information for flit 1.
7 | network_0/router_level2_1 | Adding flit 4 to VC 1 at input 1 (state: idle, empty).
7 | network_0/router_level2_1 | Using precomputed lookahead routing information for VC 1 at input 1 (front: 4).
7 | network_0/router_level2_1/buf_1/vc_1 | Changing state from idle to vc_alloc.
7 | network_0/router_level2_1 | Beginning VC allocation for VC 1 at input 1 (front: 4).
7 | network_0/router_level2_1 |   VC 0 at output 8 is in use by VC 0 at input 6 (front flit: 15).
7 | network_0/router_level2_1 |   Requesting VC 1 at output 8 (in_pri: 0, out_pri: 0).
7 | network_0/router_level2_1 |   Requesting VC 2 at output 8 (in_pri: 0, out_pri: 0).
7 | network_0/router_level2_1 |   Requesting VC 3 at output 8 (in_pri: 0, out_pri: 0).
7 | network_0/router_level2_1/vc_allocator | Input requests = [ 5 -> [ 33@0 34@0 35@0 ]  8 -> [ 44@0 45@0 46@0 47@0 ]  20 -> [ 40@0 41@0 42@0 43@0 ]  25 -> [ 60@0 61@0 62@0 63@0 ]  ], output requests = [ 33 -> [ 5@0 ]  34 -> [ 5@0 ]  35 -> [ 5@0 ]  40 -> [ 20@0 ]  41 -> [ 20@0 ]  42 -> [ 20@0 ]  43 -> [ 20@0 ]  44 -> [ 8@0 ]  45 -> [ 8@0 ]  46 -> [ 8@0 ]  47 -> [ 8@0 ]  60 -> [ 25@0 ]  61 -> [ 25@0 ]  62 -> [ 25@0 ]  63 -> [ 25@0 ]  ].
7 | network_0/router_level2_1/vc_allocator | Input grants = [ 5 -> 33  8 -> 44  20 -> 40  25 -> 60  ], output grants = [ 33 -> 5  40 -> 20  44 -> 8  60 -> 25  ].
7 | network_0/router_level2_1 | Assigning VC 1 at output 8 to VC 1 at input 1.
7 | network_0/router_level2_1 | Beginning switch allocation for VC 0 at input 1 (front: 3).
7 | network_0/router_level2_1 |   Requesting output 9.0 (non-spec, pri: 0).
7 | network_0/router_level2_1/sw_allocator | Input requests = [ 1 -> [ 9@0 ]  6 -> [ 8@0 ]  ], output requests = [ 8 -> [ 6@0 ]  9 -> [ 1@0 ]  ].
7 | network_0/router_level2_1/sw_allocator | Input grants = [ 1 -> 9  6 -> 8  ], output grants = [ 8 -> 6  9 -> 1  ].
7 | network_0/router_level2_1 | Assigning output 9.0 to VC 0 at input 1.0.
7 | network_0/router_level2_1 | Completed VC allocation for VC 1 at input 1 (front: 4).
7 | network_0/router_level2_1 |   Acquiring assigned VC 1 at output 8.
7 | network_0/router_level2_1/buf_1/vc_1 | Changing state from vc_alloc to active.
7 | network_0/router_level2_1 | Completed switch allocation for VC 0 at input 1 (front: 3).
7 | network_0/router_level2_1 |   Scheduling switch connection from input 1.0 to output 9.0.
7 | network_0/router_level2_1 | Updating lookahead routing information for flit 3.
7 | network_0/router_level2_2 | Beginning switch allocation for VC 0 at input 1 (front: 2).
7 | network_0/router_level2_2 |   Requesting output 8.0 (non-spec, pri: 0).
7 | network_0/router_level2_2/sw_allocator | Input requests = [ 1 -> [ 8@0 ]  7 -> [ 10@0 ]  ], output requests = [ 8 -> [ 1@0 ]  10 -> [ 7@0 ]  ].
7 | network_0/router_level2_2/sw_allocator | Input grants = [ 1 -> 8  7 -> 10  ], output grants = [ 8 -> 1  10 -> 7  ].
7 | network_0/router_level2_2 | Assigning output 8.0 to VC 0 at input 1.0.
7 | network_0/router_level2_2 | Completed switch allocation for VC 0 at input 1 (front: 2).
7 | network_0/router_level2_2 |   Scheduling switch connection from input 1.0 to output 8.0.
7 | network_0/router_level2_2 | Updating lookahead routing information for flit 2.
7 | network_0/router_level2_3 | Beginning switch allocation for VC 0 at input 2 (front: 7).
7 | network_0/router_level2_3 |   Requesting output 13.0 (non-spec, pri: 0).
7 | network_0/router_level2_3/sw_allocator | Input requests = [ 1 -> [ 15@0 ]  2 -> [ 13@0 ]  7 -> [ 11@0 ]  ], output requests = [ 11 -> [ 7@0 ]  13 -> [ 2@0 ]  15 -> [ 1@0 ]  ].
7 | network_0/router_level2_3/sw_allocator | Input grants = [ 1 -> 15  2 -> 13  7 -> 11  ], output grants = [ 11 -> 7  13 -> 2  15 -> 1  ].
7 | network_0/router_level2_3 | Assigning output 13.0 to VC 0 at input 2.0.
7 | network_0/router_level2_3 | Completed switch allocation for VC 0 at input 2 (front: 7).
7 | network_0/router_level2_3 |   Scheduling switch connection from input 2.0 to output 13.0.
7 | network_0/router_level2_3 | Updating lookahead routing information for flit 7.
7 | network_0/router_level2_4 | Beginning switch allocation for VC 0 at input 1 (front: 5).
7 | network_0/router_level2_4 |   Requesting output 15.0 (non-spec, pri: 0).
7 | network_0/router_level2_4 | Beginning switch allocation for VC 0 at input 2 (front: 6).
7 | network_0/router_level2_4 |   Requesting output 9.0 (non-spec, pri: 0).
7 | network_0/router_level2_4/sw_allocator | Input requests = [ 1 -> [ 15@0 ]  2 -> [ 9@0 ]  7 -> [ 14@0 ]  ], output requests = [ 9 -> [ 2@0 ]  14 -> [ 7@0 ]  15 -> [ 1@0 ]  ].
7 | network_0/router_level2_4/sw_allocator | Input grants = [ 1 -> 15  2 -> 9  7 -> 14  ], output grants = [ 9 -> 2  14 -> 7  15 -> 1  ].
7 | network_0/router_level2_4 | Assigning output 15.0 to VC 0 at input 1.0.
7 | network_0/router_level2_4 | Assigning output 9.0 to VC 0 at input 2.0.
7 | network_0/router_level2_4 | Completed switch allocation for VC 0 at input 1 (front: 5).
7 | network_0/router_level2_4 |   Scheduling switch connection from input 1.0 to output 15.0.
7 | network_0/router_level2_4 | Updating lookahead routing information for flit 5.
7 | network_0/router_level2_4 | Completed switch allocation for VC 0 at input 2 (front: 6).
7 | network_0/router_level2_4 |   Scheduling switch connection from input 2.0 to output 9.0.
7 | network_0/router_level2_4 | Updating lookahead routing information for flit 6.
7 | network_0/router_level2_6 | Beginning switch allocation for VC 0 at input 2 (front: 8).
7 | network_0/router_level2_6 |   Requesting output 12.0 (non-spec, pri: 0).
7 | network_0/router_level2_6 | Beginning switch allocation for VC 0 at input 3 (front: 9).
7 | network_0/router_level2_6 |   Requesting output 11.0 (non-spec, pri: 0).
7 | network_0/router_level2_6/sw_allocator | Input requests = [ 2 -> [ 12@0 ]  3 -> [ 11@0 ]  5 -> [ 8@0 ]  ], output requests = [ 8 -> [ 5@0 ]  11 -> [ 3@0 ]  12 -> [ 2@0 ]  ].
7 | network_0/router_level2_6/sw_allocator | Input grants = [ 2 -> 12  3 -> 11  5 -> 8  ], output grants = [ 8 -> 5  11 -> 3  12 -> 2  ].
7 | network_0/router_level2_6 | Assigning output 12.0 to VC 0 at input 2.0.
7 | network_0/router_level2_6 | Assigning output 11.0 to VC 0 at input 3.0.
7 | network_0/router_level2_6 | Completed switch allocation for VC 0 at input 2 (front: 8).
7 | network_0/router_level2_6 |   Scheduling switch connection from input 2.0 to output 12.0.
7 | network_0/router_level2_6 | Updating lookahead routing information for flit 8.
7 | network_0/router_level2_6 | Completed switch allocation for VC 0 at input 3 (front: 9).
7 | network_0/router_level2_6 |   Scheduling switch connection from input 3.0 to output 11.0.
7 | network_0/router_level2_6 | Updating lookahead routing information for flit 9.
7 | network_0/router_level2_7 | Beginning switch allocation for VC 0 at input 3 (front: 10).
7 | network_0/router_level2_7 |   Requesting output 9.0 (non-spec, pri: 0).
7 | network_0/router_level2_7/sw_allocator | Input requests = [ 3 -> [ 9@0 ]  5 -> [ 11@0 ]  ], output requests = [ 9 -> [ 3@0 ]  11 -> [ 5@0 ]  ].
7 | network_0/router_level2_7/sw_allocator | Input grants = [ 3 -> 9  5 -> 11  ], output grants = [ 9 -> 3  11 -> 5  ].
7 | network_0/router_level2_7 | Assigning output 9.0 to VC 0 at input 3.0.
7 | network_0/router_level2_7 | Completed switch allocation for VC 0 at input 3 (front: 10).
7 | network_0/router_level2_7 |   Scheduling switch connection from input 3.0 to output 9.0.
7 | network_0/router_level2_7 | Updating lookahead routing information for flit 10.
8 | network_0/router_level2_0 | Beginning crossbar traversal for flit 1 from input 1.0 to output 15.0.
8 | network_0/router_level2_0 | Completed crossbar traversal for flit 1 from input 1.0 to output 15.0.
8 | network_0/router_level2_0 | Buffering flit 1 at output 15.
8 | network_0/router_level2_1 | Beginning switch allocation for VC 1 at input 1 (front: 4).
8 | network_0/router_level2_1 |   Requesting output 8.0 (non-spec, pri: 0).
8 | network_0/router_level2_1/sw_allocator | Input requests = [ 1 -> [ 8@0 ]  2 -> [ 11@0 ]  5 -> [ 10@0 ]  6 -> [ 15@0 ]  ], output requests = [ 8 -> [ 1@0 ]  10 -> [ 5@0 ]  11 -> [ 2@0 ]  15 -> [ 6@0 ]  ].
8 | network_0/router_level2_1/sw_allocator | Input grants = [ 1 -> 8  2 -> 11  5 -> 10  6 -> 15  ], output grants = [ 8 -> 1  10 -> 5  11 -> 2  15 -> 6  ].
8 | network_0/router_level2_1 | Assigning output 8.0 to VC 1 at input 1.0.
8 | network_0/router_level2_1 | Beginning crossbar traversal for flit 3 from input 1.0 to output 9.0.
8 | network_0/router_level2_1 | Completed switch allocation for VC 1 at input 1 (front: 4).
8 | network_0/router_level2_1 |   Scheduling switch connection from input 1.0 to output 8.0.
8 | network_0/router_level2_1 | Updating lookahead routing information for flit 4.
8 | network_0/router_level2_1 | Completed crossbar traversal for flit 3 from input 1.0 to output 9.0.
8 | network_0/router_level2_1 | Buffering flit 3 at output 9.
8 | network_0/router_level2_2 | Beginning crossbar traversal for flit 2 from input 1.0 to output 8.0.
8 | network_0/router_level2_2 | Completed crossbar traversal for flit 2 from input 1.0 to output 8.0.
8 | network_0/router_level2_2 | Buffering flit 2 at output 8.
8 | network_0/router_level2_3 | Beginning crossbar traversal for flit 7 from input 2.0 to output 13.0.
8 | network_0/router_level2_3 | Completed crossbar traversal for flit 7 from input 2.0 to output 13.0.
8 | network_0/router_level2_3 | Buffering flit 7 at output 13.
8 | network_0/router_level2_4 | Beginning crossbar traversal for flit 5 from input 1.0 to output 15.0.
8 | network_0/router_level2_4 | Beginning crossbar traversal for flit 6 from input 2.0 to output 9.0.
8 | network_0/router_level2_4 | Completed crossbar traversal for flit 5 from input 1.0 to output 15.0.
8 | network_0/router_level2_4 | Buffering flit 5 at output 15.
8 | network_0/router_level2_4 | Completed crossbar traversal for flit 6 from input 2.0 to output 9.0.
8 | network_0/router_level2_4 | Buffering flit 6 at output 9.
8 | network_0/router_level2_6 | Beginning crossbar traversal for flit 8 from input 2.0 to output 12.0.
8 | network_0/router_level2_6 | Beginning crossbar traversal for flit 9 from input 3.0 to output 11.0.
8 | network_0/router_level2_6 | Completed crossbar traversal for flit 8 from input 2.0 to output 12.0.
8 | network_0/router_level2_6 | Buffering flit 8 at output 12.
8 | network_0/router_level2_6 | Completed crossbar traversal for flit 9 from input 3.0 to output 11.0.
8 | network_0/router_level2_6 | Buffering flit 9 at output 11.
8 | network_0/router_level2_7 | Beginning crossbar traversal for flit 10 from input 3.0 to output 9.0.
8 | network_0/router_level2_7 | Completed crossbar traversal for flit 10 from input 3.0 to output 9.0.
8 | network_0/router_level2_7 | Buffering flit 10 at output 9.
8 | network_0/router_level2_0 | Sending flit 1 to channel at output 15.
8 | network_0/router_level2_1 | Sending flit 3 to channel at output 9.
8 | network_0/router_level2_2 | Sending flit 2 to channel at output 8.
8 | network_0/router_level2_3 | Sending flit 7 to channel at output 13.
8 | network_0/router_level2_4 | Sending flit 6 to channel at output 9.
8 | network_0/router_level2_4 | Sending flit 5 to channel at output 15.
8 | network_0/router_level2_6 | Sending flit 9 to channel at output 11.
8 | network_0/router_level2_6 | Sending flit 8 to channel at output 12.
8 | network_0/router_level2_7 | Sending flit 10 to channel at output 9.
9 | network_0/network_0_fchan_12295 | Beginning channel traversal for flit 1 with delay 1.
9 | network_0/network_0_fchan_12297 | Beginning channel traversal for flit 3 with delay 1.
9 | network_0/network_0_fchan_12304 | Beginning channel traversal for flit 2 with delay 1.
9 | network_0/network_0_fchan_12317 | Beginning channel traversal for flit 7 with delay 1.
9 | network_0/network_0_fchan_12321 | Beginning channel traversal for flit 6 with delay 1.
9 | network_0/network_0_fchan_12327 | Beginning channel traversal for flit 5 with delay 1.
9 | network_0/network_0_fchan_12339 | Beginning channel traversal for flit 9 with delay 1.
9 | network_0/network_0_fchan_12340 | Beginning channel traversal for flit 8 with delay 1.
9 | network_0/network_0_fchan_12345 | Beginning channel traversal for flit 10 with delay 1.
9 | network_0/router_level2_1 | Beginning crossbar traversal for flit 4 from input 1.0 to output 8.0.
9 | network_0/router_level2_1 | Completed crossbar traversal for flit 4 from input 1.0 to output 8.0.
9 | network_0/router_level2_1 | Buffering flit 4 at output 8.
9 | network_0/network_0_fchan_12295 | Completed channel traversal for flit 1.
9 | network_0/network_0_fchan_12297 | Completed channel traversal for flit 3.
9 | network_0/network_0_fchan_12304 | Completed channel traversal for flit 2.
9 | network_0/network_0_fchan_12317 | Completed channel traversal for flit 7.
9 | network_0/network_0_fchan_12321 | Completed channel traversal for flit 6.
9 | network_0/network_0_fchan_12327 | Completed channel traversal for flit 5.
9 | network_0/network_0_fchan_12339 | Completed channel traversal for flit 9.
9 | network_0/network_0_fchan_12340 | Completed channel traversal for flit 8.
9 | network_0/network_0_fchan_12345 | Completed channel traversal for flit 10.
9 | network_0/router_level2_1 | Sending flit 4 to channel at output 8.
10 | network_0/network_0_fchan_12296 | Beginning channel traversal for flit 4 with delay 1.
10 | network_0/router_level1_2 | Received flit 2 from channel at input 0.
10 | network_0/router_level1_9 | Received flit 3 from channel at input 0.
10 | network_0/router_level1_12 | Received flit 6 from channel at input 0.
10 | network_0/router_level1_15 | Received flit 10 from channel at input 0.
10 | network_0/router_level1_30 | Received flit 9 from channel at input 0.
10 | network_0/router_level1_38 | Received flit 8 from channel at input 0.
10 | network_0/router_level1_43 | Received flit 7 from channel at input 0.
10 | network_0/router_level1_56 | Received flit 1 from channel at input 0.
10 | network_0/router_level1_60 | Received flit 5 from channel at input 0.
10 | network_0/router_level1_2 | Adding flit 2 to VC 0 at input 0 (state: idle, empty).
10 | network_0/router_level1_2 | Using precomputed lookahead routing information for VC 0 at input 0 (front: 2).
10 | network_0/router_level1_2/buf_0/vc_0 | Changing state from idle to vc_alloc.
10 | network_0/router_level1_2 | Beginning VC allocation for VC 0 at input 0 (front: 2).
10 | network_0/router_level1_2 |   Requesting VC 0 at output 8 (in_pri: 0, out_pri: 0).
10 | network_0/router_level1_2 |   Requesting VC 1 at output 8 (in_pri: 0, out_pri: 0).
10 | network_0/router_level1_2 |   Requesting VC 2 at output 8 (in_pri: 0, out_pri: 0).
10 | network_0/router_level1_2 |   Requesting VC 3 at output 8 (in_pri: 0, out_pri: 0).
10 | network_0/router_level1_2/vc_allocator | Input requests = [ 0 -> [ 32@0 33@0 34@0 35@0 ]  24 -> [ 32@0 33@0 34@0 35@0 ]  28 -> [ 40@0 41@0 42@0 43@0 ]  ], output requests = [ 32 -> [ 0@0 24@0 ]  33 -> [ 0@0 24@0 ]  34 -> [ 0@0 24@0 ]  35 -> [ 0@0 24@0 ]  40 -> [ 28@0 ]  41 -> [ 28@0 ]  42 -> [ 28@0 ]  43 -> [ 28@0 ]  ].
10 | network_0/router_level1_2/vc_allocator | Input grants = [ 0 -> 32  28 -> 40  ], output grants = [ 32 -> 0  40 -> 28  ].
10 | network_0/router_level1_2 | Assigning VC 0 at output 8 to VC 0 at input 0.
10 | network_0/router_level1_2 | Completed VC allocation for VC 0 at input 0 (front: 2).
10 | network_0/router_level1_2 |   Acquiring assigned VC 0 at output 8.
10 | network_0/router_level1_2/buf_0/vc_0 | Changing state from vc_alloc to active.
10 | network_0/router_level1_9 | Adding flit 3 to VC 0 at input 0 (state: idle, empty).
10 | network_0/router_level1_9 | Using precomputed lookahead routing information for VC 0 at input 0 (front: 3).
10 | network_0/router_level1_9/buf_0/vc_0 | Changing state from idle to vc_alloc.
10 | network_0/router_level1_9 | Beginning VC allocation for VC 0 at input 0 (front: 3).
10 | network_0/router_level1_9 |   Requesting VC 0 at output 10 (in_pri: 0, out_pri: 0).
10 | network_0/router_level1_9 |   Requesting VC 1 at output 10 (in_pri: 0, out_pri: 0).
10 | network_0/router_level1_9 |   Requesting VC 2 at output 10 (in_pri: 0, out_pri: 0).
10 | network_0/router_level1_9 |   Requesting VC 3 at output 10 (in_pri: 0, out_pri: 0).
10 | network_0/router_level1_9/vc_allocator | Input requests = [ 0 -> [ 40@0 41@0 42@0 43@0 ]  12 -> [ 40@0 41@0 42@0 43@0 ]  20 -> [ 40@0 41@0 42@0 43@0 ]  ], output requests = [ 40 -> [ 0@0 12@0 20@0 ]  41 -> [ 0@0 12@0 20@0 ]  42 -> [ 0@0 12@0 20@0 ]  43 -> [ 0@0 12@0 20@0 ]  ].
10 | network_0/router_level1_9/vc_allocator | Input grants = [ 0 -> 40  ], output grants = [ 40 -> 0  ].
10 | network_0/router_level1_9 | Assigning VC 0 at output 10 to VC 0 at input 0.
10 | network_0/router_level1_9 | Completed VC allocation for VC 0 at input 0 (front: 3).
10 | network_0/router_level1_9 |   Acquiring assigned VC 0 at output 10.
10 | network_0/router_level1_9/buf_0/vc_0 | Changing state from vc_alloc to active.
10 | network_0/router_level1_12 | Adding flit 6 to VC 0 at input 0 (state: idle, empty).
10 | network_0/router_level1_12 | Using precomputed lookahead routing information for VC 0 at input 0 (front: 6).
10 | network_0/router_level1_12/buf_0/vc_0 | Changing state from idle to vc_alloc.
10 | network_0/router_level1_12 | Beginning VC allocation for VC 0 at input 0 (front: 6).
10 | network_0/router_level1_12 |   Requesting VC 0 at output 10 (in_pri: 0, out_pri: 0).
10 | network_0/router_level1_12 |   Requesting VC 1 at output 10 (in_pri: 0, out_pri: 0).
10 | network_0/router_level1_12 |   Requesting VC 2 at output 10 (in_pri: 0, out_pri: 0).
10 | network_0/router_level1_12 |   Requesting VC 3 at output 10 (in_pri: 0, out_pri: 0).
10 | network_0/router_level1_12/vc_allocator | Input requests = [ 0 -> [ 40@0 41@0 42@0 43@0 ]  4 -> [ 36@0 37@0 38@0 39@0 ]  8 -> [ 36@0 37@0 38@0 39@0 ]  24 -> [ 4@0 5@0 6@0 7@0 ]  ], output requests = [ 4 -> [ 24@0 ]  5 -> [ 24@0 ]  6 -> [ 24@0 ]  7 -> [ 24@0 ]  36 -> [ 4@0 8@0 ]  37 -> [ 4@0 8@0 ]  38 -> [ 4@0 8@0 ]  39 -> [ 4@0 8@0 ]  40 -> [ 0@0 ]  41 -> [ 0@0 ]  42 -> [ 0@0 ]  43 -> [ 0@0 ]  ].
10 | network_0/router_level1_12/vc_allocator | Input grants = [ 0 -> 40  4 -> 36  24 -> 4  ], output grants = [ 4 -> 24  36 -> 4  40 -> 0  ].
10 | network_0/router_level1_12 | Assigning VC 0 at output 10 to VC 0 at input 0.
10 | network_0/router_level1_12 | Completed VC allocation for VC 0 at input 0 (front: 6).
10 | network_0/router_level1_12 |   Acquiring assigned VC 0 at output 10.
10 | network_0/router_level1_12/buf_0/vc_0 | Changing state from vc_alloc to active.
10 | network_0/router_level1_15 | Adding flit 10 to VC 0 at input 0 (state: idle, empty).
10 | network_0/router_level1_15 | Using precomputed lookahead routing information for VC 0 at input 0 (front: 10).
10 | network_0/router_level1_15/buf_0/vc_0 | Changing state from idle to vc_alloc.
10 | network_0/router_level1_15 | Beginning VC allocation for VC 0 at input 0 (front: 10).
10 | network_0/router_level1_15 |   Requesting VC 0 at output 8 (in_pri: 0, out_pri: 0).
10 | network_0/router_level1_15 |   Requesting VC 1 at output 8 (in_pri: 0, out_pri: 0).
10 | network_0/router_level1_15 |   Requesting VC 2 at output 8 (in_pri: 0, out_pri: 0).
10 | network_0/router_level1_15 |   Requesting VC 3 at output 8 (in_pri: 0, out_pri: 0).
10 | network_0/router_level1_15/vc_allocator | Input requests = [ 0 -> [ 32@0 33@0 34@0 35@0 ]  20 -> [ 32@0 33@0 34@0 35@0 ]  ], output requests = [ 32 -> [ 0@0 20@0 ]  33 -> [ 0@0 20@0 ]  34 -> [ 0@0 20@0 ]  35 -> [ 0@0 20@0 ]  ].
10 | network_0/router_level1_15/vc_allocator | Input grants = [ 0 -> 32  ], output grants = [ 32 -> 0  ].
10 | network_0/router_level1_15 | Assigning VC 0 at output 8 to VC 0 at input 0.
10 | network_0/router_level1_15 | Completed VC allocation for VC 0 at input 0 (front: 10).
10 | network_0/router_level1_15 |   Acquiring assigned VC 0 at output 8.
10 | network_0/router_level1_15/buf_0/vc_0 | Changing state from vc_alloc to active.
10 | network_0/router_level1_30 | Adding flit 9 to VC 0 at input 0 (state: idle, empty).
10 | network_0/router_level1_30 | Using precomputed lookahead routing information for VC 0 at input 0 (front: 9).
10 | network_0/router_level1_30/buf_0/vc_0 | Changing state from idle to vc_alloc.
10 | network_0/router_level1_30 | Beginning VC allocation for VC 0 at input 0 (front: 9).
10 | network_0/router_level1_30 |   Requesting VC 0 at output 11 (in_pri: 0, out_pri: 0).
10 | network_0/router_level1_30 |   Requesting VC 1 at output 11 (in_pri: 0, out_pri: 0).
10 | network_0/router_level1_30 |   Requesting VC 2 at output 11 (in_pri: 0, out_pri: 0).
10 | network_0/router_level1_30 |   Requesting VC 3 at output 11 (in_pri: 0, out_pri: 0).
10 | network_0/router_level1_30/vc_allocator | Input requests = [ 0 -> [ 44@0 45@0 46@0 47@0 ]  12 -> [ 40@0 41@0 42@0 43@0 ]  ], output requests = [ 40 -> [ 12@0 ]  41 -> [ 12@0 ]  42 -> [ 12@0 ]  43 -> [ 12@0 ]  44 -> [ 0@0 ]  45 -> [ 0@0 ]  46 -> [ 0@0 ]  47 -> [ 0@0 ]  ].
10 | network_0/router_level1_30/vc_allocator | Input grants = [ 0 -> 44  12 -> 40  ], output grants = [ 40 -> 12  44 -> 0  ].
10 | network_0/router_level1_30 | Assigning VC 0 at output 11 to VC 0 at input 0.
10 | network_0/router_level1_30 | Completed VC allocation for VC 0 at input 0 (front: 9).
10 | network_0/router_level1_30 |   Acquiring assigned VC 0 at output 11.
10 | network_0/router_level1_30/buf_0/vc_0 | Changing state from vc_alloc to active.
10 | network_0/router_level1_38 | Adding flit 8 to VC 0 at input 0 (state: idle, empty).
10 | network_0/router_level1_38 | Using precomputed lookahead routing information for VC 0 at input 0 (front: 8).
10 | network_0/router_level1_38/buf_0/vc_0 | Changing state from idle to vc_alloc.
10 | network_0/router_level1_38 | Beginning VC allocation for VC 0 at input 0 (front: 8).
10 | network_0/router_level1_38 |   Requesting VC 0 at output 10 (in_pri: 0, out_pri: 0).
10 | network_0/router_level1_38 |   Requesting VC 1 at output 10 (in_pri: 0, out_pri: 0).
10 | network_0/router_level1_38 |   Requesting VC 2 at output 10 (in_pri: 0, out_pri: 0).
10 | network_0/router_level1_38 |   Requesting VC 3 at output 10 (in_pri: 0, out_pri: 0).
10 | network_0/router_level1_38/vc_allocator | Input requests = [ 0 -> [ 40@0 41@0 42@0 43@0 ]  16 -> [ 44@0 45@0 46@0 47@0 ]  20 -> [ 4@0 5@0 6@0 7@0 ]  ], output requests = [ 4 -> [ 20@0 ]  5 -> [ 20@0 ]  6 -> [ 20@0 ]  7 -> [ 20@0 ]  40 -> [ 0@0 ]  41 -> [ 0@0 ]  42 -> [ 0@0 ]  43 -> [ 0@0 ]  44 -> [ 16@0 ]  45 -> [ 16@0 ]  46 -> [ 16@0 ]  47 -> [ 16@0 ]  ].
10 | network_0/router_level1_38/vc_allocator | Input grants = [ 0 -> 40  16 -> 44  20 -> 4  ], output grants = [ 4 -> 20  40 -> 0  44 -> 16  ].
10 | network_0/router_level1_38 | Assigning VC 0 at output 10 to VC 0 at input 0.
10 | network_0/router_level1_38 | Completed VC allocation for VC 0 at input 0 (front: 8).
10 | network_0/router_level1_38 |   Acquiring assigned VC 0 at output 10.
10 | network_0/router_level1_38/buf_0/vc_0 | Changing state from vc_alloc to active.
10 | network_0/router_level1_43 | Adding flit 7 to VC 0 at input 0 (state: idle, empty).
10 | network_0/router_level1_43 | Using precomputed lookahead routing information for VC 0 at input 0 (front: 7).
10 | network_0/router_level1_43/buf_0/vc_0 | Changing state from idle to vc_alloc.
10 | network_0/router_level1_43 | Beginning VC allocation for VC 0 at input 0 (front: 7).
10 | network_0/router_level1_43 |   Requesting VC 0 at output 11 (in_pri: 0, out_pri: 0).
10 | network_0/router_level1_43 |   Requesting VC 1 at output 11 (in_pri: 0, out_pri: 0).
10 | network_0/router_level1_43 |   Requesting VC 2 at output 11 (in_pri: 0, out_pri: 0).
10 | network_0/router_level1_43 |   Requesting VC 3 at output 11 (in_pri: 0, out_pri: 0).
10 | network_0/router_level1_43/vc_allocator | Input requests = [ 0 -> [ 44@0 45@0 46@0 47@0 ]  ], output requests = [ 44 -> [ 0@0 ]  45 -> [ 0@0 ]  46 -> [ 0@0 ]  47 -> [ 0@0 ]  ].
10 | network_0/router_level1_43/vc_allocator | Input grants = [ 0 -> 44  ], output grants = [ 44 -> 0  ].
10 | network_0/router_level1_43 | Assigning VC 0 at output 11 to VC 0 at input 0.
10 | network_0/router_level1_43 | Completed VC allocation for VC 0 at input 0 (front: 7).
10 | network_0/router_level1_43 |   Acquiring assigned VC 0 at output 11.
10 | network_0/router_level1_43/buf_0/vc_0 | Changing state from vc_alloc to active.
10 | network_0/router_level1_56 | Adding flit 1 to VC 0 at input 0 (state: idle, empty).
10 | network_0/router_level1_56 | Using precomputed lookahead routing information for VC 0 at input 0 (front: 1).
10 | network_0/router_level1_56/buf_0/vc_0 | Changing state from idle to vc_alloc.
10 | network_0/router_level1_56 | Beginning VC allocation for VC 0 at input 0 (front: 1).
10 | network_0/router_level1_56 |   Requesting VC 0 at output 8 (in_pri: 0, out_pri: 0).
10 | network_0/router_level1_56 |   Requesting VC 1 at output 8 (in_pri: 0, out_pri: 0).
10 | network_0/router_level1_56 |   Requesting VC 2 at output 8 (in_pri: 0, out_pri: 0).
10 | network_0/router_level1_56 |   Requesting VC 3 at output 8 (in_pri: 0, out_pri: 0).
10 | network_0/router_level1_56/vc_allocator | Input requests = [ 0 -> [ 32@0 33@0 34@0 35@0 ]  8 -> [ 36@0 37@0 38@0 39@0 ]  16 -> [ 44@0 45@0 46@0 47@0 ]  20 -> [ 16@0 17@0 18@0 19@0 ]  ], output requests = [ 16 -> [ 20@0 ]  17 -> [ 20@0 ]  18 -> [ 20@0 ]  19 -> [ 20@0 ]  32 -> [ 0@0 ]  33 -> [ 0@0 ]  34 -> [ 0@0 ]  35 -> [ 0@0 ]  36 -> [ 8@0 ]  37 -> [ 8@0 ]  38 -> [ 8@0 ]  39 -> [ 8@0 ]  44 -> [ 16@0 ]  45 -> [ 16@0 ]  46 -> [ 16@0 ]  47 -> [ 16@0 ]  ].
10 | network_0/router_level1_56/vc_allocator | Input grants = [ 0 -> 32  8 -> 36  16 -> 44  20 -> 16  ], output grants = [ 16 -> 20  32 -> 0  36 -> 8  44 -> 16  ].
10 | network_0/router_level1_56 | Assigning VC 0 at output 8 to VC 0 at input 0.
10 | network_0/router_level1_56 | Completed VC allocation for VC 0 at input 0 (front: 1).
10 | network_0/router_level1_56 |   Acquiring assigned VC 0 at output 8.
10 | network_0/router_level1_56/buf_0/vc_0 | Changing state from vc_alloc to active.
10 | network_0/router_level1_60 | Adding flit 5 to VC 0 at input 0 (state: idle, empty).
10 | network_0/router_level1_60 | Using precomputed lookahead routing information for VC 0 at input 0 (front: 5).
10 | network_0/router_level1_60/buf_0/vc_0 | Changing state from idle to vc_alloc.
10 | network_0/router_level1_60 | Beginning VC allocation for VC 0 at input 0 (front: 5).
10 | network_0/router_level1_60 |   Requesting VC 0 at output 9 (in_pri: 0, out_pri: 0).
10 | network_0/router_level1_60 |   Requesting VC 1 at output 9 (in_pri: 0, out_pri: 0).
10 | network_0/router_level1_60 |   Requesting VC 2 at output 9 (in_pri: 0, out_pri: 0).
10 | network_0/router_level1_60 |   Requesting VC 3 at output 9 (in_pri: 0, out_pri: 0).
10 | network_0/router_level1_60/vc_allocator | Input requests = [ 0 -> [ 36@0 37@0 38@0 39@0 ]  4 -> [ 32@0 33@0 34@0 35@0 ]  ], output requests = [ 32 -> [ 4@0 ]  33 -> [ 4@0 ]  34 -> [ 4@0 ]  35 -> [ 4@0 ]  36 -> [ 0@0 ]  37 -> [ 0@0 ]  38 -> [ 0@0 ]  39 -> [ 0@0 ]  ].
10 | network_0/router_level1_60/vc_allocator | Input grants = [ 0 -> 36  4 -> 32  ], output grants = [ 32 -> 4  36 -> 0  ].
10 | network_0/router_level1_60 | Assigning VC 0 at output 9 to VC 0 at input 0.
10 | network_0/router_level1_60 | Completed VC allocation for VC 0 at input 0 (front: 5).
10 | network_0/router_level1_60 |   Acquiring assigned VC 0 at output 9.
10 | network_0/router_level1_60/buf_0/vc_0 | Changing state from vc_alloc to active.
10 | network_0/network_0_fchan_12296 | Completed channel traversal for flit 4.
11 | network_0/router_level1_1 | Received flit 4 from channel at input 0.
11 | network_0/router_level1_1 | Adding flit 4 to VC 1 at input 0 (state: idle, empty).
11 | network_0/router_level1_1 | Using precomputed lookahead routing information for VC 1 at input 0 (front: 4).
11 | network_0/router_level1_1/buf_0/vc_1 | Changing state from idle to vc_alloc.
11 | network_0/router_level1_1 | Beginning VC allocation for VC 1 at input 0 (front: 4).
11 | network_0/router_level1_1 |   VC 0 at output 9 is in use by VC 0 at input 0 (front flit: 15).
11 | network_0/router_level1_1 |   Requesting VC 1 at output 9 (in_pri: 0, out_pri: 0).
11 | network_0/router_level1_1 |   Requesting VC 2 at output 9 (in_pri: 0, out_pri: 0).
11 | network_0/router_level1_1 |   Requesting VC 3 at output 9 (in_pri: 0, out_pri: 0).
11 | network_0/router_level1_1/vc_allocator | Input requests = [ 1 -> [ 37@0 38@0 39@0 ]  5 -> [ 44@0 45@0 46@0 47@0 ]  ], output requests = [ 37 -> [ 1@0 ]  38 -> [ 1@0 ]  39 -> [ 1@0 ]  44 -> [ 5@0 ]  45 -> [ 5@0 ]  46 -> [ 5@0 ]  47 -> [ 5@0 ]  ].
11 | network_0/router_level1_1/vc_allocator | Input grants = [ 1 -> 37  5 -> 44  ], output grants = [ 37 -> 1  44 -> 5  ].
11 | network_0/router_level1_1 | Assigning VC 1 at output 9 to VC 1 at input 0.
11 | network_0/router_level1_1 | Completed VC allocation for VC 1 at input 0 (front: 4).
11 | network_0/router_level1_1 |   Acquiring assigned VC 1 at output 9.
11 | network_0/router_level1_1/buf_0/vc_1 | Changing state from vc_alloc to active.
11 | network_0/router_level1_2 | Beginning switch allocation for VC 0 at input 0 (front: 2).
11 | network_0/router_level1_2 |   Requesting output 8.0 (non-spec, pri: 0).
11 | network_0/router_level1_2/sw_allocator | Input requests = [ 0 -> [ 8@0 ]  7 -> [ 10@0 ]  ], output requests = [ 8 -> [ 0@0 ]  10 -> [ 7@0 ]  ].
11 | network_0/router_level1_2/sw_allocator | Input grants = [ 0 -> 8  7 -> 10  ], output grants = [ 8 -> 0  10 -> 7  ].
11 | network_0/router_level1_2 | Assigning output 8.0 to VC 0 at input 0.0.
11 | network_0/router_level1_2 | Completed switch allocation for VC 0 at input 0 (front: 2).
11 | network_0/router_level1_2 |   Scheduling switch connection from input 0.0 to output 8.0.
11 | network_0/router_level1_2 | Updating lookahead routing information for flit 2.
11 | network_0/router_level1_9 | Beginning switch allocation for VC 0 at input 0 (front: 3).
11 | network_0/router_level1_9 |   Requesting output 10.0 (non-spec, pri: 0).
11 | network_0/router_level1_9/sw_allocator | Input requests = [ 0 -> [ 10@0 ]  ], output requests = [ 10 -> [ 0@0 ]  ].
11 | network_0/router_level1_9/sw_allocator | Input grants = [ 0 -> 10  ], output grants = [ 10 -> 0  ].
11 | network_0/router_level1_9 | Assigning output 10.0 to VC 0 at input 0.0.
11 | network_0/router_level1_9 | Completed switch allocation for VC 0 at input 0 (front: 3).
11 | network_0/router_level1_9 |   Scheduling switch connection from input 0.0 to output 10.0.
11 | network_0/router_level1_9 | Updating lookahead routing information for flit 3.
11 | network_0/router_level1_12 | Beginning switch allocation for VC 0 at input 0 (front: 6).
11 | network_0/router_level1_12 |   Requesting output 10.0 (non-spec, pri: 0).
11 | network_0/router_level1_12/sw_allocator | Input requests = [ 0 -> [ 10@0 ]  1 -> [ 9@0 ]  6 -> [ 1@0 ]  ], output requests = [ 1 -> [ 6@0 ]  9 -> [ 1@0 ]  10 -> [ 0@0 ]  ].
11 | network_0/router_level1_12/sw_allocator | Input grants = [ 0 -> 10  1 -> 9  6 -> 1  ], output grants = [ 1 -> 6  9 -> 1  10 -> 0  ].
11 | network_0/router_level1_12 | Assigning output 10.0 to VC 0 at input 0.0.
11 | network_0/router_level1_12 | Completed switch allocation for VC 0 at input 0 (front: 6).
11 | network_0/router_level1_12 |   Scheduling switch connection from input 0.0 to output 10.0.
11 | network_0/router_level1_12 | Updating lookahead routing information for flit 6.
11 | network_0/router_level1_15 | Beginning switch allocation for VC 0 at input 0 (front: 10).
11 | network_0/router_level1_15 |   Requesting output 8.0 (non-spec, pri: 0).
11 | network_0/router_level1_15/sw_allocator | Input requests = [ 0 -> [ 8@0 ]  ], output requests = [ 8 -> [ 0@0 ]  ].
11 | network_0/router_level1_15/sw_allocator | Input grants = [ 0 -> 8  ], output grants = [ 8 -> 0  ].
11 | network_0/router_level1_15 | Assigning output 8.0 to VC 0 at input 0.0.
11 | network_0/router_level1_15 | Completed switch allocation for VC 0 at input 0 (front: 10).
11 | network_0/router_level1_15 |   Scheduling switch connection from input 0.0 to output 8.0.
11 | network_0/router_level1_15 | Updating lookahead routing information for flit 10.
11 | network_0/router_level1_30 | Beginning switch allocation for VC 0 at input 0 (front: 9).
11 | network_0/router_level1_30 |   Requesting output 11.0 (non-spec, pri: 0).
11 | network_0/router_level1_30/sw_allocator | Input requests = [ 0 -> [ 11@0 ]  3 -> [ 10@0 ]  ], output requests = [ 10 -> [ 3@0 ]  11 -> [ 0@0 ]  ].
11 | network_0/router_level1_30/sw_allocator | Input grants = [ 0 -> 11  3 -> 10  ], output grants = [ 10 -> 3  11 -> 0  ].
11 | network_0/router_level1_30 | Assigning output 11.0 to VC 0 at input 0.0.
11 | network_0/router_level1_30 | Completed switch allocation for VC 0 at input 0 (front: 9).
11 | network_0/router_level1_30 |   Scheduling switch connection from input 0.0 to output 11.0.
11 | network_0/router_level1_30 | Updating lookahead routing information for flit 9.
11 | network_0/router_level1_38 | Beginning switch allocation for VC 0 at input 0 (front: 8).
11 | network_0/router_level1_38 |   Requesting output 10.0 (non-spec, pri: 0).
[...]
27 | network_0/router_level3_144 | Beginning switch allocation for VC 0 at input 12 (front: 6).
27 | network_0/router_level3_144 |   Requesting output 0.0 (non-spec, pri: 0).
27 | network_0/router_level3_144/sw_allocator | Input requests = [ 1 -> [ 14@0 ]  3 -> [ 8@0 11@0 ]  8 -> [ 4@0 ]  10 -> [ 3@0 ]  12 -> [ 0@0 ]  15 -> [ 7@0 ]  ], output requests = [ 0 -> [ 12@0 ]  3 -> [ 10@0 ]  4 -> [ 8@0 ]  7 -> [ 15@0 ]  8 -> [ 3@0 ]  11 -> [ 3@0 ]  14 -> [ 1@0 ]  ].
27 | network_0/router_level3_144/sw_allocator | Input grants = [ 1 -> 14  3 -> 8  8 -> 4  10 -> 3  12 -> 0  15 -> 7  ], output grants = [ 0 -> 12  3 -> 10  4 -> 8  7 -> 15  8 -> 3  14 -> 1  ].
27 | network_0/router_level3_144 | Assigning output 0.0 to VC 0 at input 12.0.
27 | network_0/router_level3_144 | Completed switch allocation for VC 0 at input 12 (front: 6).
27 | network_0/router_level3_144 |   Scheduling switch connection from input 12.0 to output 0.0.
27 | network_0/router_level3_152 | Beginning switch allocation for VC 0 at input 11 (front: 7).
27 | network_0/router_level3_152 |   Requesting output 0.0 (non-spec, pri: 0).
27 | network_0/router_level3_152/sw_allocator | Input requests = [ 5 -> [ 15@0 ]  8 -> [ 3@0 ]  11 -> [ 0@0 ]  14 -> [ 4@0 ]  ], output requests = [ 0 -> [ 11@0 ]  3 -> [ 8@0 ]  4 -> [ 14@0 ]  15 -> [ 5@0 ]  ].
27 | network_0/router_level3_152/sw_allocator | Input grants = [ 5 -> 15  8 -> 3  11 -> 0  14 -> 4  ], output grants = [ 0 -> 11  3 -> 8  4 -> 14  15 -> 5  ].
27 | network_0/router_level3_152 | Assigning output 0.0 to VC 0 at input 11.0.
27 | network_0/router_level3_152 | Completed switch allocation for VC 0 at input 11 (front: 7).
27 | network_0/router_level3_152 |   Scheduling switch connection from input 11.0 to output 0.0.
27 | network_0/router_level3_160 | Beginning switch allocation for VC 0 at input 14 (front: 8).
27 | network_0/router_level3_160 |   Requesting output 0.0 (non-spec, pri: 0).
27 | network_0/router_level3_160/sw_allocator | Input requests = [ 3 -> [ 10@0 12@0 ]  4 -> [ 13@0 ]  5 -> [ 10@0 ]  14 -> [ 0@0 ]  ], output requests = [ 0 -> [ 14@0 ]  10 -> [ 3@0 5@0 ]  12 -> [ 3@0 ]  13 -> [ 4@0 ]  ].
27 | network_0/router_level3_160/sw_allocator | Input grants = [ 3 -> 10  4 -> 13  14 -> 0  ], output grants = [ 0 -> 14  10 -> 3  13 -> 4  ].
27 | network_0/router_level3_160 | Assigning output 0.0 to VC 0 at input 14.0.
27 | network_0/router_level3_160 | Completed switch allocation for VC 0 at input 14 (front: 8).
27 | network_0/router_level3_160 |   Scheduling switch connection from input 14.0 to output 0.0.
27 | network_0/router_level3_240 | Beginning switch allocation for VC 0 at input 14 (front: 9).
27 | network_0/router_level3_240 |   Requesting output 0.0 (non-spec, pri: 0).
27 | network_0/router_level3_240/sw_allocator | Input requests = [ 0 -> [ 8@0 ]  1 -> [ 8@0 ]  2 -> [ 8@0 13@0 ]  5 -> [ 9@0 ]  6 -> [ 10@0 ]  7 -> [ 12@0 ]  8 -> [ 1@0 ]  9 -> [ 2@0 ]  14 -> [ 0@0 ]  ], output requests = [ 0 -> [ 14@0 ]  1 -> [ 8@0 ]  2 -> [ 9@0 ]  8 -> [ 0@0 1@0 2@0 ]  9 -> [ 5@0 ]  10 -> [ 6@0 ]  12 -> [ 7@0 ]  13 -> [ 2@0 ]  ].
27 | network_0/router_level3_240/sw_allocator | Input grants = [ 0 -> 8  2 -> 13  5 -> 9  6 -> 10  7 -> 12  8 -> 1  9 -> 2  14 -> 0  ], output grants = [ 0 -> 14  1 -> 8  2 -> 9  8 -> 0  9 -> 5  10 -> 6  12 -> 7  13 -> 2  ].
27 | network_0/router_level3_240 | Assigning output 0.0 to VC 0 at input 14.0.
27 | network_0/router_level3_240 | Completed switch allocation for VC 0 at input 14 (front: 9).
27 | network_0/router_level3_240 |   Scheduling switch connection from input 14.0 to output 0.0.
27 | network_0/router_level3_248 | Beginning switch allocation for VC 0 at input 15 (front: 10).
27 | network_0/router_level3_248 |   Requesting output 0.0 (non-spec, pri: 0).
27 | network_0/router_level3_248/sw_allocator | Input requests = [ 0 -> [ 12@0 ]  3 -> [ 15@0 ]  6 -> [ 11@0 ]  7 -> [ 9@0 ]  12 -> [ 4@0 ]  15 -> [ 0@0 ]  ], output requests = [ 0 -> [ 15@0 ]  4 -> [ 12@0 ]  9 -> [ 7@0 ]  11 -> [ 6@0 ]  12 -> [ 0@0 ]  15 -> [ 3@0 ]  ].
27 | network_0/router_level3_248/sw_allocator | Input grants = [ 0 -> 12  3 -> 15  6 -> 11  7 -> 9  12 -> 4  15 -> 0  ], output grants = [ 0 -> 15  4 -> 12  9 -> 7  11 -> 6  12 -> 0  15 -> 3  ].
27 | network_0/router_level3_248 | Assigning output 0.0 to VC 0 at input 15.0.
27 | network_0/router_level3_248 | Completed switch allocation for VC 0 at input 15 (front: 10).
27 | network_0/router_level3_248 |   Scheduling switch connection from input 15.0 to output 0.0.
28 | network_0/router_level3_88 | Beginning crossbar traversal for flit 1 from input 8.0 to output 0.0.
28 | network_0/router_level3_88 | Completed crossbar traversal for flit 1 from input 8.0 to output 0.0.
28 | network_0/router_level3_88 | Buffering flit 1 at output 0.
28 | network_0/router_level3_96 | Beginning crossbar traversal for flit 2 from input 10.0 to output 0.0.
28 | network_0/router_level3_96 | Completed crossbar traversal for flit 2 from input 10.0 to output 0.0.
28 | network_0/router_level3_96 | Buffering flit 2 at output 0.
28 | network_0/router_level3_104 | Beginning crossbar traversal for flit 3 from input 9.0 to output 0.0.
28 | network_0/router_level3_104 | Completed crossbar traversal for flit 3 from input 9.0 to output 0.0.
28 | network_0/router_level3_104 | Buffering flit 3 at output 0.
28 | network_0/router_level3_112 | Beginning switch allocation for VC 0 at input 9 (front: 4).
28 | network_0/router_level3_112 |   Requesting output 0.0 (non-spec, pri: 0).
28 | network_0/router_level3_112/sw_allocator | Input requests = [ 2 -> [ 12@0 ]  6 -> [ 8@0 ]  9 -> [ 0@0 ]  12 -> [ 7@0 ]  ], output requests = [ 0 -> [ 9@0 ]  7 -> [ 12@0 ]  8 -> [ 6@0 ]  12 -> [ 2@0 ]  ].
28 | network_0/router_level3_112/sw_allocator | Input grants = [ 2 -> 12  6 -> 8  9 -> 0  12 -> 7  ], output grants = [ 0 -> 9  7 -> 12  8 -> 6  12 -> 2  ].
28 | network_0/router_level3_112 | Assigning output 0.0 to VC 0 at input 9.0.
28 | network_0/router_level3_112 | Completed switch allocation for VC 0 at input 9 (front: 4).
28 | network_0/router_level3_112 |   Scheduling switch connection from input 9.0 to output 0.0.
28 | network_0/router_level3_120 | Beginning crossbar traversal for flit 5 from input 12.0 to output 0.0.
28 | network_0/router_level3_120 | Completed crossbar traversal for flit 5 from input 12.0 to output 0.0.
28 | network_0/router_level3_120 | Buffering flit 5 at output 0.
28 | network_0/router_level3_144 | Beginning crossbar traversal for flit 6 from input 12.0 to output 0.0.
28 | network_0/router_level3_144 | Completed crossbar traversal for flit 6 from input 12.0 to output 0.0.
28 | network_0/router_level3_144 | Buffering flit 6 at output 0.
28 | network_0/router_level3_152 | Beginning crossbar traversal for flit 7 from input 11.0 to output 0.0.
28 | network_0/router_level3_152 | Completed crossbar traversal for flit 7 from input 11.0 to output 0.0.
28 | network_0/router_level3_152 | Buffering flit 7 at output 0.
28 | network_0/router_level3_160 | Beginning crossbar traversal for flit 8 from input 14.0 to output 0.0.
28 | network_0/router_level3_160 | Completed crossbar traversal for flit 8 from input 14.0 to output 0.0.
28 | network_0/router_level3_160 | Buffering flit 8 at output 0.
28 | network_0/router_level3_240 | Beginning crossbar traversal for flit 9 from input 14.0 to output 0.0.
28 | network_0/router_level3_240 | Completed crossbar traversal for flit 9 from input 14.0 to output 0.0.
28 | network_0/router_level3_240 | Buffering flit 9 at output 0.
28 | network_0/router_level3_248 | Beginning crossbar traversal for flit 10 from input 15.0 to output 0.0.
28 | network_0/router_level3_248 | Completed crossbar traversal for flit 10 from input 15.0 to output 0.0.
28 | network_0/router_level3_248 | Buffering flit 10 at output 0.
28 | network_0/router_level3_88 | Sending flit 1 to channel at output 0.
28 | network_0/router_level3_96 | Sending flit 2 to channel at output 0.
28 | network_0/router_level3_104 | Sending flit 3 to channel at output 0.
28 | network_0/router_level3_120 | Sending flit 5 to channel at output 0.
28 | network_0/router_level3_144 | Sending flit 6 to channel at output 0.
28 | network_0/router_level3_152 | Sending flit 7 to channel at output 0.
28 | network_0/router_level3_160 | Sending flit 8 to channel at output 0.
28 | network_0/router_level3_240 | Sending flit 9 to channel at output 0.
28 | network_0/router_level3_248 | Sending flit 10 to channel at output 0.
29 | network_0/network_0_fchan_egress704 | Beginning channel traversal for flit 1 with delay 1.
29 | network_0/network_0_fchan_egress768 | Beginning channel traversal for flit 2 with delay 1.
29 | network_0/network_0_fchan_egress832 | Beginning channel traversal for flit 3 with delay 1.
29 | network_0/network_0_fchan_egress960 | Beginning channel traversal for flit 5 with delay 1.
29 | network_0/network_0_fchan_egress1152 | Beginning channel traversal for flit 6 with delay 1.
29 | network_0/network_0_fchan_egress1216 | Beginning channel traversal for flit 7 with delay 1.
29 | network_0/network_0_fchan_egress1280 | Beginning channel traversal for flit 8 with delay 1.
29 | network_0/network_0_fchan_egress1920 | Beginning channel traversal for flit 9 with delay 1.
29 | network_0/network_0_fchan_egress1984 | Beginning channel traversal for flit 10 with delay 1.
29 | network_0/router_level3_112 | Beginning crossbar traversal for flit 4 from input 9.0 to output 0.0.
29 | network_0/router_level3_112 | Completed crossbar traversal for flit 4 from input 9.0 to output 0.0.
29 | network_0/router_level3_112 | Buffering flit 4 at output 0.
29 | network_0/network_0_fchan_egress704 | Completed channel traversal for flit 1.
29 | network_0/network_0_fchan_egress768 | Completed channel traversal for flit 2.
29 | network_0/network_0_fchan_egress832 | Completed channel traversal for flit 3.
29 | network_0/network_0_fchan_egress960 | Completed channel traversal for flit 5.
29 | network_0/network_0_fchan_egress1152 | Completed channel traversal for flit 6.
29 | network_0/network_0_fchan_egress1216 | Completed channel traversal for flit 7.
29 | network_0/network_0_fchan_egress1280 | Completed channel traversal for flit 8.
29 | network_0/network_0_fchan_egress1920 | Completed channel traversal for flit 9.
29 | network_0/network_0_fchan_egress1984 | Completed channel traversal for flit 10.
29 | network_0/router_level3_112 | Sending flit 4 to channel at output 0.
30 | node704 | Ejecting flit 1 (packet 1) from VC 0.
30 | node768 | Ejecting flit 2 (packet 2) from VC 0.
30 | node832 | Ejecting flit 3 (packet 3) from VC 0.
30 | node960 | Ejecting flit 5 (packet 5) from VC 0.
30 | node1152 | Ejecting flit 6 (packet 6) from VC 0.
30 | node1216 | Ejecting flit 7 (packet 7) from VC 0.
30 | node1280 | Ejecting flit 8 (packet 8) from VC 0.
30 | node1920 | Ejecting flit 9 (packet 9) from VC 0.
30 | node1984 | Ejecting flit 10 (packet 10) from VC 0.
30 | network_0/network_0_fchan_egress896 | Beginning channel traversal for flit 4 with delay 1.
30 | node704 | Injecting credit for VC 0 into subnet 0.
30 | node704 | Retiring flit 1 (packet 1, src = 11, dest = 704, hops = 7, flat = 30).
30 | node704 | Retiring packet 1 (plat = 30, nlat = 30, frag = 0, src = 11, dest = 704).
30 | node768 | Injecting credit for VC 0 into subnet 0.
30 | node768 | Retiring flit 2 (packet 2, src = 12, dest = 768, hops = 7, flat = 30).
30 | node768 | Retiring packet 2 (plat = 30, nlat = 30, frag = 0, src = 12, dest = 768).
30 | node832 | Injecting credit for VC 0 into subnet 0.
30 | node832 | Retiring flit 3 (packet 3, src = 13, dest = 832, hops = 7, flat = 30).
30 | node832 | Retiring packet 3 (plat = 30, nlat = 30, frag = 0, src = 13, dest = 832).
30 | node960 | Injecting credit for VC 0 into subnet 0.
30 | node960 | Retiring flit 5 (packet 5, src = 15, dest = 960, hops = 7, flat = 30).
30 | node960 | Retiring packet 5 (plat = 30, nlat = 30, frag = 0, src = 15, dest = 960).
30 | node1152 | Injecting credit for VC 0 into subnet 0.
30 | node1152 | Retiring flit 6 (packet 6, src = 18, dest = 1152, hops = 7, flat = 30).
30 | node1152 | Retiring packet 6 (plat = 30, nlat = 30, frag = 0, src = 18, dest = 1152).
30 | node1216 | Injecting credit for VC 0 into subnet 0.
30 | node1216 | Retiring flit 7 (packet 7, src = 19, dest = 1216, hops = 7, flat = 30).
30 | node1216 | Retiring packet 7 (plat = 30, nlat = 30, frag = 0, src = 19, dest = 1216).
30 | node1280 | Injecting credit for VC 0 into subnet 0.
30 | node1280 | Retiring flit 8 (packet 8, src = 20, dest = 1280, hops = 7, flat = 30).
30 | node1280 | Retiring packet 8 (plat = 30, nlat = 30, frag = 0, src = 20, dest = 1280).
30 | node1920 | Injecting credit for VC 0 into subnet 0.
30 | node1920 | Retiring flit 9 (packet 9, src = 30, dest = 1920, hops = 7, flat = 30).
30 | node1920 | Retiring packet 9 (plat = 30, nlat = 30, frag = 0, src = 30, dest = 1920).
30 | node1984 | Injecting credit for VC 0 into subnet 0.
30 | node1984 | Retiring flit 10 (packet 10, src = 31, dest = 1984, hops = 7, flat = 30).
30 | node1984 | Retiring packet 10 (plat = 30, nlat = 30, frag = 0, src = 31, dest = 1984).
30 | network_0/network_0_fchan_egress896 | Completed channel traversal for flit 4.
31 | node896 | Ejecting flit 4 (packet 4) from VC 0.
31 | node896 | Injecting credit for VC 0 into subnet 0.
31 | node896 | Retiring flit 4 (packet 4, src = 14, dest = 896, hops = 7, flat = 31).
31 | node896 | Retiring packet 4 (plat = 31, nlat = 31, frag = 0, src = 14, dest = 896).
Class 0:
Packet latency average = 41.9586
	minimum = 6
	maximum = 155
Network latency average = 41.9586
	minimum = 6
	maximum = 155
Slowest packet = 846085
Flit latency average = 41.9586
	minimum = 6
	maximum = 155
Slowest flit = 846085
Fragmentation average = 0
	minimum = 0
	maximum = 0
Injected packet rate average = 0.34969
	minimum = 0.297 (at node 3445)
	maximum = 0.397 (at node 3798)
Accepted packet rate average = 0.333875
	minimum = 0.281 (at node 3580)
	maximum = 0.387 (at node 3710)
Injected flit rate average = 0.34969
	minimum = 0.297 (at node 3445)
	maximum = 0.397 (at node 3798)
Accepted flit rate average= 0.333875
	minimum = 0.281 (at node 3580)
	maximum = 0.387 (at node 3710)
Injected packet length average = 1
Accepted packet length average = 1
Total in-flight flits = 64779 (0 measured)
latency change    = 1
throughput change = 1
Class 0:
Packet latency average = 43.7109
	minimum = 6
	maximum = 155
Network latency average = 43.7109
	minimum = 6
	maximum = 155
Slowest packet = 846085
Flit latency average = 43.7109
	minimum = 6
	maximum = 155
Slowest flit = 846085
Fragmentation average = 0
	minimum = 0
	maximum = 0
Injected packet rate average = 0.349826
	minimum = 0.3145 (at node 562)
	maximum = 0.385 (at node 790)
Accepted packet rate average = 0.341865
	minimum = 0.3045 (at node 1769)
	maximum = 0.377 (at node 874)
Injected flit rate average = 0.349826
	minimum = 0.3145 (at node 562)
	maximum = 0.385 (at node 790)
Accepted flit rate average= 0.341865
	minimum = 0.3045 (at node 1769)
	maximum = 0.377 (at node 874)
Injected packet length average = 1
Accepted packet length average = 1
Total in-flight flits = 65215 (0 measured)
latency change    = 0.0400888
throughput change = 0.0233714
Class 0:
Packet latency average = 45.6224
	minimum = 6
	maximum = 152
Network latency average = 45.6224
	minimum = 6
	maximum = 152
Slowest packet = 2869945
Flit latency average = 45.6224
	minimum = 6
	maximum = 152
Slowest flit = 2869945
Fragmentation average = 0
	minimum = 0
	maximum = 0
Injected packet rate average = 0.350069
	minimum = 0.289 (at node 3853)
	maximum = 0.407 (at node 2471)
Accepted packet rate average = 0.349993
	minimum = 0.29 (at node 892)
	maximum = 0.41 (at node 2534)
Injected flit rate average = 0.350069
	minimum = 0.289 (at node 3853)
	maximum = 0.407 (at node 2471)
Accepted flit rate average= 0.349993
	minimum = 0.29 (at node 892)
	maximum = 0.41 (at node 2534)
Injected packet length average = 1
Accepted packet length average = 1
Total in-flight flits = 65529 (0 measured)
latency change    = 0.0418985
throughput change = 0.0232228
Warmed up ...Time used is 3000 cycles
Class 0:
Packet latency average = 45.3735
	minimum = 6
	maximum = 169
Network latency average = 45.3735
	minimum = 6
	maximum = 169
Slowest packet = 4508743
Flit latency average = 45.7101
	minimum = 6
	maximum = 169
Slowest flit = 4508743
Fragmentation average = 0
	minimum = 0
	maximum = 0
Injected packet rate average = 0.349566
	minimum = 0.291 (at node 3355)
	maximum = 0.412 (at node 1910)
Accepted packet rate average = 0.349587
	minimum = 0.294 (at node 1780)
	maximum = 0.416 (at node 3485)
Injected flit rate average = 0.349566
	minimum = 0.291 (at node 3355)
	maximum = 0.412 (at node 1910)
Accepted flit rate average= 0.349587
	minimum = 0.294 (at node 1780)
	maximum = 0.416 (at node 3485)
Injected packet length average = 1
Accepted packet length average = 1
Total in-flight flits = 65441 (65441 measured)
latency change    = 0.00548664
throughput change = 0.00115999
Class 0:
Packet latency average = 45.6806
	minimum = 6
	maximum = 169
Network latency average = 45.6806
	minimum = 6
	maximum = 169
Slowest packet = 4508743
Flit latency average = 45.8418
	minimum = 6
	maximum = 169
Slowest flit = 4508743
Fragmentation average = 0
	minimum = 0
	maximum = 0
Injected packet rate average = 0.349871
	minimum = 0.3145 (at node 2356)
	maximum = 0.387 (at node 2470)
Accepted packet rate average = 0.349813
	minimum = 0.3135 (at node 3796)
	maximum = 0.3875 (at node 2470)
Injected flit rate average = 0.349871
	minimum = 0.3145 (at node 2356)
	maximum = 0.387 (at node 2470)
Accepted flit rate average= 0.349813
	minimum = 0.3135 (at node 3796)
	maximum = 0.3875 (at node 2470)
Injected packet length average = 1
Accepted packet length average = 1
Total in-flight flits = 66008 (66008 measured)
latency change    = 0.00672346
throughput change = 0.000645574
Class 0:
Packet latency average = 45.7373
	minimum = 6
	maximum = 169
Network latency average = 45.7373
	minimum = 6
	maximum = 169
Slowest packet = 4508743
Flit latency average = 45.8439
	minimum = 6
	maximum = 169
Slowest flit = 4508743
Fragmentation average = 0
	minimum = 0
	maximum = 0
Injected packet rate average = 0.349985
	minimum = 0.317 (at node 3010)
	maximum = 0.378 (at node 3939)
Accepted packet rate average = 0.349947
	minimum = 0.314333 (at node 175)
	maximum = 0.377667 (at node 1168)
Injected flit rate average = 0.349985
	minimum = 0.317 (at node 3010)
	maximum = 0.378 (at node 3939)
Accepted flit rate average= 0.349947
	minimum = 0.314333 (at node 175)
	maximum = 0.377667 (at node 1168)
Injected packet length average = 1
Accepted packet length average = 1
Total in-flight flits = 66005 (66005 measured)
latency change    = 0.00124024
throughput change = 0.000381848
Draining all recorded packets ...
Draining remaining packets ...
Time taken is 6205 cycles
====== Overall Traffic Statistics ======
====== Traffic class 0 ======
Packet latency average = 45.8497 (1 samples)
	minimum = 6 (1 samples)
	maximum = 169 (1 samples)
Network latency average = 45.8497 (1 samples)
	minimum = 6 (1 samples)
	maximum = 169 (1 samples)
Flit latency average = 45.9223 (1 samples)
	minimum = 6 (1 samples)
	maximum = 169 (1 samples)
Fragmentation average = 0 (1 samples)
	minimum = 0 (1 samples)
	maximum = 0 (1 samples)
Injected packet rate average = 0.349985 (1 samples)
	minimum = 0.317 (1 samples)
	maximum = 0.378 (1 samples)
Accepted packet rate average = 0.349947 (1 samples)
	minimum = 0.314333 (1 samples)
	maximum = 0.377667 (1 samples)
Injected flit rate average = 0.349985 (1 samples)
	minimum = 0.317 (1 samples)
	maximum = 0.378 (1 samples)
Accepted flit rate average = 0.349947 (1 samples)
	minimum = 0.314333 (1 samples)
	maximum = 0.377667 (1 samples)
Injected packet size average = 1 (1 samples)
Accepted packet size average = 1 (1 samples)
Hops average = 6.68773 (1 samples)
Total run time 798.195
