BEGIN Configuration File: examples/fattree_config_1.00_2_bitcomp
// $Id: dragonflyconfig 3555 2011-05-16 23:37:55Z dub $

// Copyright (c) 2007-2015, Trustees of The Leland Stanford Junior University
// All rights reserved.
//
// Redistribution and use in source and binary forms, with or without
// modification, are permitted provided that the following conditions are met:
//
// Redistributions of source code must retain the above copyright notice, this
// list of conditions and the following disclaimer.
// Redistributions in binary form must reproduce the above copyright notice,
// this list of conditions and the following disclaimer in the documentation
// and/or other materials provided with the distribution.
//
// THIS SOFTWARE IS PROVIDED BY THE COPYRIGHT HOLDERS AND CONTRIBUTORS "AS IS"
// AND ANY EXPRESS OR IMPLIED WARRANTIES, INCLUDING, BUT NOT LIMITED TO, THE
// IMPLIED WARRANTIES OF MERCHANTABILITY AND FITNESS FOR A PARTICULAR PURPOSE
// ARE DISCLAIMED. IN NO EVENT SHALL THE COPYRIGHT OWNER OR CONTRIBUTORS BE
// LIABLE FOR ANY DIRECT, INDIRECT, INCIDENTAL, SPECIAL, EXEMPLARY, OR
// CONSEQUENTIAL DAMAGES (INCLUDING, BUT NOT LIMITED TO, PROCUREMENT OF
// SUBSTITUTE GOODS OR SERVICES; LOSS OF USE, DATA, OR PROFITS; OR BUSINESS
// INTERRUPTION) HOWEVER CAUSED AND ON ANY THEORY OF LIABILITY, WHETHER IN
// CONTRACT, STRICT LIABILITY, OR TORT (INCLUDING NEGLIGENCE OR OTHERWISE)
// ARISING IN ANY WAY OUT OF THE USE OF THIS SOFTWARE, EVEN IF ADVISED OF THE
// POSSIBILITY OF SUCH DAMAGE.


hold_switch_for_packet=1;

vc_buf_size = 16;


wait_for_tail_credit = 0;

//
// Router architecture
//
vc_allocator = separable_input_first; 
sw_allocator = separable_input_first;
alloc_iters  = 1;

credit_delay   = 2;
routing_delay  = 0;
vc_alloc_delay = 1;
sw_alloc_delay = 1;
st_final_delay = 1;

input_speedup     = 1;
output_speedup    = 1;
internal_speedup  = 1.0;


warmup_periods = 3;
sim_count          = 1;

sample_period  = 1000;  

routing_function = nca;
num_vcs     = 4;

priority = none;
traffic = bitcomp;


injection_rate = 1.00;
packet_size = 1;
injection_rate_uses_flits=1;

topology = fattree;

k  = 8;
n  = 4;
t = 2;

watch_file = watchfile.txt;
watch_out=-;
stats_out = examples/fattree_config_1.00_2_bitcomp.m;

END Configuration File: examples/fattree_config_1.00_2_bitcomp
Fat Tree
 k = 8 levels = 4
 each switch - total radix =  16
 # of switches = 2048
 # of channels = 24576
 # of nodes ( size of network ) = 4096
 tapering factor = 2
0 | node1 | Enqueuing flit 1 (packet 1) at time 0.
0 | node2 | Enqueuing flit 2 (packet 2) at time 0.
0 | node3 | Enqueuing flit 3 (packet 3) at time 0.
0 | node4 | Enqueuing flit 4 (packet 4) at time 0.
0 | node5 | Enqueuing flit 5 (packet 5) at time 0.
0 | node6 | Enqueuing flit 6 (packet 6) at time 0.
0 | node7 | Enqueuing flit 7 (packet 7) at time 0.
0 | node8 | Enqueuing flit 8 (packet 8) at time 0.
0 | node9 | Enqueuing flit 9 (packet 9) at time 0.
0 | node10 | Enqueuing flit 10 (packet 10) at time 0.
0 | traffic_manager | Finding output VC for flit 1:
0 | traffic_manager |   Selected output VC 0.
0 | node1 | Generating lookahead routing info for flit 1.
0 | node1 | Injecting flit 1 into subnet 0 at time 0 with priority 0.
0 | traffic_manager | Finding output VC for flit 2:
0 | traffic_manager |   Selected output VC 0.
0 | node2 | Generating lookahead routing info for flit 2.
0 | node2 | Injecting flit 2 into subnet 0 at time 0 with priority 0.
0 | traffic_manager | Finding output VC for flit 3:
0 | traffic_manager |   Selected output VC 0.
0 | node3 | Generating lookahead routing info for flit 3.
0 | node3 | Injecting flit 3 into subnet 0 at time 0 with priority 0.
0 | traffic_manager | Finding output VC for flit 4:
0 | traffic_manager |   Selected output VC 0.
0 | node4 | Generating lookahead routing info for flit 4.
0 | node4 | Injecting flit 4 into subnet 0 at time 0 with priority 0.
0 | traffic_manager | Finding output VC for flit 5:
0 | traffic_manager |   Selected output VC 0.
0 | node5 | Generating lookahead routing info for flit 5.
0 | node5 | Injecting flit 5 into subnet 0 at time 0 with priority 0.
0 | traffic_manager | Finding output VC for flit 6:
0 | traffic_manager |   Selected output VC 0.
0 | node6 | Generating lookahead routing info for flit 6.
0 | node6 | Injecting flit 6 into subnet 0 at time 0 with priority 0.
0 | traffic_manager | Finding output VC for flit 7:
0 | traffic_manager |   Selected output VC 0.
0 | node7 | Generating lookahead routing info for flit 7.
0 | node7 | Injecting flit 7 into subnet 0 at time 0 with priority 0.
0 | traffic_manager | Finding output VC for flit 8:
0 | traffic_manager |   Selected output VC 0.
0 | node8 | Generating lookahead routing info for flit 8.
0 | node8 | Injecting flit 8 into subnet 0 at time 0 with priority 0.
0 | traffic_manager | Finding output VC for flit 9:
0 | traffic_manager |   Selected output VC 0.
0 | node9 | Generating lookahead routing info for flit 9.
0 | node9 | Injecting flit 9 into subnet 0 at time 0 with priority 0.
0 | traffic_manager | Finding output VC for flit 10:
0 | traffic_manager |   Selected output VC 0.
0 | node10 | Generating lookahead routing info for flit 10.
0 | node10 | Injecting flit 10 into subnet 0 at time 0 with priority 0.
1 | network_0/network_0_fchan_ingress1 | Beginning channel traversal for flit 1 with delay 1.
1 | network_0/network_0_fchan_ingress2 | Beginning channel traversal for flit 2 with delay 1.
1 | network_0/network_0_fchan_ingress3 | Beginning channel traversal for flit 3 with delay 1.
1 | network_0/network_0_fchan_ingress4 | Beginning channel traversal for flit 4 with delay 1.
1 | network_0/network_0_fchan_ingress5 | Beginning channel traversal for flit 5 with delay 1.
1 | network_0/network_0_fchan_ingress6 | Beginning channel traversal for flit 6 with delay 1.
1 | network_0/network_0_fchan_ingress7 | Beginning channel traversal for flit 7 with delay 1.
1 | network_0/network_0_fchan_ingress8 | Beginning channel traversal for flit 8 with delay 1.
1 | network_0/network_0_fchan_ingress9 | Beginning channel traversal for flit 9 with delay 1.
1 | network_0/network_0_fchan_ingress10 | Beginning channel traversal for flit 10 with delay 1.
1 | network_0/network_0_fchan_ingress1 | Completed channel traversal for flit 1.
1 | network_0/network_0_fchan_ingress2 | Completed channel traversal for flit 2.
1 | network_0/network_0_fchan_ingress3 | Completed channel traversal for flit 3.
1 | network_0/network_0_fchan_ingress4 | Completed channel traversal for flit 4.
1 | network_0/network_0_fchan_ingress5 | Completed channel traversal for flit 5.
1 | network_0/network_0_fchan_ingress6 | Completed channel traversal for flit 6.
1 | network_0/network_0_fchan_ingress7 | Completed channel traversal for flit 7.
1 | network_0/network_0_fchan_ingress8 | Completed channel traversal for flit 8.
1 | network_0/network_0_fchan_ingress9 | Completed channel traversal for flit 9.
1 | network_0/network_0_fchan_ingress10 | Completed channel traversal for flit 10.
2 | network_0/router_level3_0 | Received flit 1 from channel at input 1.
2 | network_0/router_level3_0 | Received flit 2 from channel at input 2.
2 | network_0/router_level3_0 | Received flit 3 from channel at input 3.
2 | network_0/router_level3_0 | Received flit 4 from channel at input 4.
2 | network_0/router_level3_0 | Received flit 5 from channel at input 5.
2 | network_0/router_level3_0 | Received flit 6 from channel at input 6.
2 | network_0/router_level3_0 | Received flit 7 from channel at input 7.
2 | network_0/router_level3_1 | Received flit 8 from channel at input 0.
2 | network_0/router_level3_1 | Received flit 9 from channel at input 1.
2 | network_0/router_level3_1 | Received flit 10 from channel at input 2.
2 | network_0/router_level3_0 | Adding flit 1 to VC 0 at input 1 (state: idle, empty).
2 | network_0/router_level3_0 | Using precomputed lookahead routing information for VC 0 at input 1 (front: 1).
2 | network_0/router_level3_0/buf_1/vc_0 | Changing state from idle to vc_alloc.
2 | network_0/router_level3_0 | Adding flit 2 to VC 0 at input 2 (state: idle, empty).
2 | network_0/router_level3_0 | Using precomputed lookahead routing information for VC 0 at input 2 (front: 2).
2 | network_0/router_level3_0/buf_2/vc_0 | Changing state from idle to vc_alloc.
2 | network_0/router_level3_0 | Adding flit 3 to VC 0 at input 3 (state: idle, empty).
2 | network_0/router_level3_0 | Using precomputed lookahead routing information for VC 0 at input 3 (front: 3).
2 | network_0/router_level3_0/buf_3/vc_0 | Changing state from idle to vc_alloc.
2 | network_0/router_level3_0 | Adding flit 4 to VC 0 at input 4 (state: idle, empty).
2 | network_0/router_level3_0 | Using precomputed lookahead routing information for VC 0 at input 4 (front: 4).
2 | network_0/router_level3_0/buf_4/vc_0 | Changing state from idle to vc_alloc.
2 | network_0/router_level3_0 | Adding flit 5 to VC 0 at input 5 (state: idle, empty).
2 | network_0/router_level3_0 | Using precomputed lookahead routing information for VC 0 at input 5 (front: 5).
2 | network_0/router_level3_0/buf_5/vc_0 | Changing state from idle to vc_alloc.
2 | network_0/router_level3_0 | Adding flit 6 to VC 0 at input 6 (state: idle, empty).
2 | network_0/router_level3_0 | Using precomputed lookahead routing information for VC 0 at input 6 (front: 6).
2 | network_0/router_level3_0/buf_6/vc_0 | Changing state from idle to vc_alloc.
2 | network_0/router_level3_0 | Adding flit 7 to VC 0 at input 7 (state: idle, empty).
2 | network_0/router_level3_0 | Using precomputed lookahead routing information for VC 0 at input 7 (front: 7).
2 | network_0/router_level3_0/buf_7/vc_0 | Changing state from idle to vc_alloc.
2 | network_0/router_level3_0 | Beginning VC allocation for VC 0 at input 1 (front: 1).
2 | network_0/router_level3_0 |   Requesting VC 0 at output 10 (in_pri: 0, out_pri: 0).
2 | network_0/router_level3_0 |   Requesting VC 1 at output 10 (in_pri: 0, out_pri: 0).
2 | network_0/router_level3_0 |   Requesting VC 2 at output 10 (in_pri: 0, out_pri: 0).
2 | network_0/router_level3_0 |   Requesting VC 3 at output 10 (in_pri: 0, out_pri: 0).
2 | network_0/router_level3_0 | Beginning VC allocation for VC 0 at input 2 (front: 2).
2 | network_0/router_level3_0 |   Requesting VC 0 at output 9 (in_pri: 0, out_pri: 0).
2 | network_0/router_level3_0 |   Requesting VC 1 at output 9 (in_pri: 0, out_pri: 0).
2 | network_0/router_level3_0 |   Requesting VC 2 at output 9 (in_pri: 0, out_pri: 0).
2 | network_0/router_level3_0 |   Requesting VC 3 at output 9 (in_pri: 0, out_pri: 0).
2 | network_0/router_level3_0 | Beginning VC allocation for VC 0 at input 3 (front: 3).
2 | network_0/router_level3_0 |   Requesting VC 0 at output 9 (in_pri: 0, out_pri: 0).
2 | network_0/router_level3_0 |   Requesting VC 1 at output 9 (in_pri: 0, out_pri: 0).
2 | network_0/router_level3_0 |   Requesting VC 2 at output 9 (in_pri: 0, out_pri: 0).
2 | network_0/router_level3_0 |   Requesting VC 3 at output 9 (in_pri: 0, out_pri: 0).
2 | network_0/router_level3_0 | Beginning VC allocation for VC 0 at input 4 (front: 4).
2 | network_0/router_level3_0 |   Requesting VC 0 at output 15 (in_pri: 0, out_pri: 0).
2 | network_0/router_level3_0 |   Requesting VC 1 at output 15 (in_pri: 0, out_pri: 0).
2 | network_0/router_level3_0 |   Requesting VC 2 at output 15 (in_pri: 0, out_pri: 0).
2 | network_0/router_level3_0 |   Requesting VC 3 at output 15 (in_pri: 0, out_pri: 0).
2 | network_0/router_level3_0 | Beginning VC allocation for VC 0 at input 5 (front: 5).
2 | network_0/router_level3_0 |   Requesting VC 0 at output 9 (in_pri: 0, out_pri: 0).
2 | network_0/router_level3_0 |   Requesting VC 1 at output 9 (in_pri: 0, out_pri: 0).
2 | network_0/router_level3_0 |   Requesting VC 2 at output 9 (in_pri: 0, out_pri: 0).
2 | network_0/router_level3_0 |   Requesting VC 3 at output 9 (in_pri: 0, out_pri: 0).
2 | network_0/router_level3_0 | Beginning VC allocation for VC 0 at input 6 (front: 6).
2 | network_0/router_level3_0 |   Requesting VC 0 at output 12 (in_pri: 0, out_pri: 0).
2 | network_0/router_level3_0 |   Requesting VC 1 at output 12 (in_pri: 0, out_pri: 0).
2 | network_0/router_level3_0 |   Requesting VC 2 at output 12 (in_pri: 0, out_pri: 0).
2 | network_0/router_level3_0 |   Requesting VC 3 at output 12 (in_pri: 0, out_pri: 0).
2 | network_0/router_level3_0 | Beginning VC allocation for VC 0 at input 7 (front: 7).
2 | network_0/router_level3_0 |   Requesting VC 0 at output 8 (in_pri: 0, out_pri: 0).
2 | network_0/router_level3_0 |   Requesting VC 1 at output 8 (in_pri: 0, out_pri: 0).
2 | network_0/router_level3_0 |   Requesting VC 2 at output 8 (in_pri: 0, out_pri: 0).
2 | network_0/router_level3_0 |   Requesting VC 3 at output 8 (in_pri: 0, out_pri: 0).
2 | network_0/router_level3_0/vc_allocator | Input requests = [ 0 -> [ 32@0 33@0 34@0 35@0 ]  4 -> [ 40@0 41@0 42@0 43@0 ]  8 -> [ 36@0 37@0 38@0 39@0 ]  12 -> [ 36@0 37@0 38@0 39@0 ]  16 -> [ 60@0 61@0 62@0 63@0 ]  20 -> [ 36@0 37@0 38@0 39@0 ]  24 -> [ 48@0 49@0 50@0 51@0 ]  28 -> [ 32@0 33@0 34@0 35@0 ]  ], output requests = [ 32 -> [ 0@0 28@0 ]  33 -> [ 0@0 28@0 ]  34 -> [ 0@0 28@0 ]  35 -> [ 0@0 28@0 ]  36 -> [ 8@0 12@0 20@0 ]  37 -> [ 8@0 12@0 20@0 ]  38 -> [ 8@0 12@0 20@0 ]  39 -> [ 8@0 12@0 20@0 ]  40 -> [ 4@0 ]  41 -> [ 4@0 ]  42 -> [ 4@0 ]  43 -> [ 4@0 ]  48 -> [ 24@0 ]  49 -> [ 24@0 ]  50 -> [ 24@0 ]  51 -> [ 24@0 ]  60 -> [ 16@0 ]  61 -> [ 16@0 ]  62 -> [ 16@0 ]  63 -> [ 16@0 ]  ].
2 | network_0/router_level3_0/vc_allocator | Input grants = [ 0 -> 32  4 -> 40  8 -> 36  16 -> 60  24 -> 48  ], output grants = [ 32 -> 0  36 -> 8  40 -> 4  48 -> 24  60 -> 16  ].
2 | network_0/router_level3_0 | Assigning VC 0 at output 10 to VC 0 at input 1.
2 | network_0/router_level3_0 | Assigning VC 0 at output 9 to VC 0 at input 2.
2 | network_0/router_level3_0 | VC allocation failed for VC 0 at input 3.
2 | network_0/router_level3_0 | Assigning VC 0 at output 15 to VC 0 at input 4.
2 | network_0/router_level3_0 | VC allocation failed for VC 0 at input 5.
2 | network_0/router_level3_0 | Assigning VC 0 at output 12 to VC 0 at input 6.
2 | network_0/router_level3_0 | VC allocation failed for VC 0 at input 7.
2 | network_0/router_level3_0 | Completed VC allocation for VC 0 at input 1 (front: 1).
2 | network_0/router_level3_0 |   Acquiring assigned VC 0 at output 10.
2 | network_0/router_level3_0/buf_1/vc_0 | Changing state from vc_alloc to active.
2 | network_0/router_level3_0 | Completed VC allocation for VC 0 at input 2 (front: 2).
2 | network_0/router_level3_0 |   Acquiring assigned VC 0 at output 9.
2 | network_0/router_level3_0/buf_2/vc_0 | Changing state from vc_alloc to active.
2 | network_0/router_level3_0 | Completed VC allocation for VC 0 at input 3 (front: 3).
2 | network_0/router_level3_0 |   No output VC allocated.
2 | network_0/router_level3_0 | Completed VC allocation for VC 0 at input 4 (front: 4).
2 | network_0/router_level3_0 |   Acquiring assigned VC 0 at output 15.
2 | network_0/router_level3_0/buf_4/vc_0 | Changing state from vc_alloc to active.
2 | network_0/router_level3_0 | Completed VC allocation for VC 0 at input 5 (front: 5).
2 | network_0/router_level3_0 |   No output VC allocated.
2 | network_0/router_level3_0 | Completed VC allocation for VC 0 at input 6 (front: 6).
2 | network_0/router_level3_0 |   Acquiring assigned VC 0 at output 12.
2 | network_0/router_level3_0/buf_6/vc_0 | Changing state from vc_alloc to active.
2 | network_0/router_level3_0 | Completed VC allocation for VC 0 at input 7 (front: 7).
2 | network_0/router_level3_0 |   No output VC allocated.
2 | network_0/router_level3_1 | Adding flit 8 to VC 0 at input 0 (state: idle, empty).
2 | network_0/router_level3_1 | Using precomputed lookahead routing information for VC 0 at input 0 (front: 8).
2 | network_0/router_level3_1/buf_0/vc_0 | Changing state from idle to vc_alloc.
2 | network_0/router_level3_1 | Adding flit 9 to VC 0 at input 1 (state: idle, empty).
2 | network_0/router_level3_1 | Using precomputed lookahead routing information for VC 0 at input 1 (front: 9).
2 | network_0/router_level3_1/buf_1/vc_0 | Changing state from idle to vc_alloc.
2 | network_0/router_level3_1 | Adding flit 10 to VC 0 at input 2 (state: idle, empty).
2 | network_0/router_level3_1 | Using precomputed lookahead routing information for VC 0 at input 2 (front: 10).
2 | network_0/router_level3_1/buf_2/vc_0 | Changing state from idle to vc_alloc.
2 | network_0/router_level3_1 | Beginning VC allocation for VC 0 at input 0 (front: 8).
2 | network_0/router_level3_1 |   Requesting VC 0 at output 11 (in_pri: 0, out_pri: 0).
2 | network_0/router_level3_1 |   Requesting VC 1 at output 11 (in_pri: 0, out_pri: 0).
2 | network_0/router_level3_1 |   Requesting VC 2 at output 11 (in_pri: 0, out_pri: 0).
2 | network_0/router_level3_1 |   Requesting VC 3 at output 11 (in_pri: 0, out_pri: 0).
2 | network_0/router_level3_1 | Beginning VC allocation for VC 0 at input 1 (front: 9).
2 | network_0/router_level3_1 |   Requesting VC 0 at output 15 (in_pri: 0, out_pri: 0).
2 | network_0/router_level3_1 |   Requesting VC 1 at output 15 (in_pri: 0, out_pri: 0).
2 | network_0/router_level3_1 |   Requesting VC 2 at output 15 (in_pri: 0, out_pri: 0).
2 | network_0/router_level3_1 |   Requesting VC 3 at output 15 (in_pri: 0, out_pri: 0).
2 | network_0/router_level3_1 | Beginning VC allocation for VC 0 at input 2 (front: 10).
2 | network_0/router_level3_1 |   Requesting VC 0 at output 9 (in_pri: 0, out_pri: 0).
2 | network_0/router_level3_1 |   Requesting VC 1 at output 9 (in_pri: 0, out_pri: 0).
2 | network_0/router_level3_1 |   Requesting VC 2 at output 9 (in_pri: 0, out_pri: 0).
2 | network_0/router_level3_1 |   Requesting VC 3 at output 9 (in_pri: 0, out_pri: 0).
2 | network_0/router_level3_1/vc_allocator | Input requests = [ 0 -> [ 44@0 45@0 46@0 47@0 ]  4 -> [ 60@0 61@0 62@0 63@0 ]  8 -> [ 36@0 37@0 38@0 39@0 ]  12 -> [ 32@0 33@0 34@0 35@0 ]  16 -> [ 44@0 45@0 46@0 47@0 ]  20 -> [ 36@0 37@0 38@0 39@0 ]  24 -> [ 40@0 41@0 42@0 43@0 ]  28 -> [ 48@0 49@0 50@0 51@0 ]  ], output requests = [ 32 -> [ 12@0 ]  33 -> [ 12@0 ]  34 -> [ 12@0 ]  35 -> [ 12@0 ]  36 -> [ 8@0 20@0 ]  37 -> [ 8@0 20@0 ]  38 -> [ 8@0 20@0 ]  39 -> [ 8@0 20@0 ]  40 -> [ 24@0 ]  41 -> [ 24@0 ]  42 -> [ 24@0 ]  43 -> [ 24@0 ]  44 -> [ 0@0 16@0 ]  45 -> [ 0@0 16@0 ]  46 -> [ 0@0 16@0 ]  47 -> [ 0@0 16@0 ]  48 -> [ 28@0 ]  49 -> [ 28@0 ]  50 -> [ 28@0 ]  51 -> [ 28@0 ]  60 -> [ 4@0 ]  61 -> [ 4@0 ]  62 -> [ 4@0 ]  63 -> [ 4@0 ]  ].
2 | network_0/router_level3_1/vc_allocator | Input grants = [ 0 -> 44  4 -> 60  8 -> 36  12 -> 32  24 -> 40  28 -> 48  ], output grants = [ 32 -> 12  36 -> 8  40 -> 24  44 -> 0  48 -> 28  60 -> 4  ].
2 | network_0/router_level3_1 | Assigning VC 0 at output 11 to VC 0 at input 0.
2 | network_0/router_level3_1 | Assigning VC 0 at output 15 to VC 0 at input 1.
2 | network_0/router_level3_1 | Assigning VC 0 at output 9 to VC 0 at input 2.
2 | network_0/router_level3_1 | Completed VC allocation for VC 0 at input 0 (front: 8).
2 | network_0/router_level3_1 |   Acquiring assigned VC 0 at output 11.
2 | network_0/router_level3_1/buf_0/vc_0 | Changing state from vc_alloc to active.
2 | network_0/router_level3_1 | Completed VC allocation for VC 0 at input 1 (front: 9).
2 | network_0/router_level3_1 |   Acquiring assigned VC 0 at output 15.
2 | network_0/router_level3_1/buf_1/vc_0 | Changing state from vc_alloc to active.
2 | network_0/router_level3_1 | Completed VC allocation for VC 0 at input 2 (front: 10).
2 | network_0/router_level3_1 |   Acquiring assigned VC 0 at output 9.
2 | network_0/router_level3_1/buf_2/vc_0 | Changing state from vc_alloc to active.
3 | network_0/router_level3_0 | Beginning VC allocation for VC 0 at input 3 (front: 3).
3 | network_0/router_level3_0 |   VC 0 at output 9 is in use by VC 0 at input 2 (front flit: 2).
3 | network_0/router_level3_0 |   Requesting VC 1 at output 9 (in_pri: 0, out_pri: 0).
3 | network_0/router_level3_0 |   Requesting VC 2 at output 9 (in_pri: 0, out_pri: 0).
3 | network_0/router_level3_0 |   Requesting VC 3 at output 9 (in_pri: 0, out_pri: 0).
3 | network_0/router_level3_0 | Beginning VC allocation for VC 0 at input 5 (front: 5).
3 | network_0/router_level3_0 |   VC 0 at output 9 is in use by VC 0 at input 2 (front flit: 2).
3 | network_0/router_level3_0 |   Requesting VC 1 at output 9 (in_pri: 0, out_pri: 0).
3 | network_0/router_level3_0 |   Requesting VC 2 at output 9 (in_pri: 0, out_pri: 0).
3 | network_0/router_level3_0 |   Requesting VC 3 at output 9 (in_pri: 0, out_pri: 0).
3 | network_0/router_level3_0 | Beginning VC allocation for VC 0 at input 7 (front: 7).
3 | network_0/router_level3_0 |   VC 0 at output 8 is in use by VC 0 at input 0 (front flit: 0).
3 | network_0/router_level3_0 |   Requesting VC 1 at output 8 (in_pri: 0, out_pri: 0).
3 | network_0/router_level3_0 |   Requesting VC 2 at output 8 (in_pri: 0, out_pri: 0).
3 | network_0/router_level3_0 |   Requesting VC 3 at output 8 (in_pri: 0, out_pri: 0).
3 | network_0/router_level3_0/vc_allocator | Input requests = [ 1 -> [ 49@0 50@0 51@0 ]  5 -> [ 33@0 34@0 35@0 ]  9 -> [ 56@0 57@0 58@0 59@0 ]  12 -> [ 37@0 38@0 39@0 ]  13 -> [ 56@0 57@0 58@0 59@0 ]  17 -> [ 49@0 50@0 51@0 ]  20 -> [ 37@0 38@0 39@0 ]  21 -> [ 52@0 53@0 54@0 55@0 ]  25 -> [ 52@0 53@0 54@0 55@0 ]  28 -> [ 33@0 34@0 35@0 ]  29 -> [ 44@0 45@0 46@0 47@0 ]  ], output requests = [ 33 -> [ 5@0 28@0 ]  34 -> [ 5@0 28@0 ]  35 -> [ 5@0 28@0 ]  37 -> [ 12@0 20@0 ]  38 -> [ 12@0 20@0 ]  39 -> [ 12@0 20@0 ]  44 -> [ 29@0 ]  45 -> [ 29@0 ]  46 -> [ 29@0 ]  47 -> [ 29@0 ]  49 -> [ 1@0 17@0 ]  50 -> [ 1@0 17@0 ]  51 -> [ 1@0 17@0 ]  52 -> [ 21@0 25@0 ]  53 -> [ 21@0 25@0 ]  54 -> [ 21@0 25@0 ]  55 -> [ 21@0 25@0 ]  56 -> [ 9@0 13@0 ]  57 -> [ 9@0 13@0 ]  58 -> [ 9@0 13@0 ]  59 -> [ 9@0 13@0 ]  ].
3 | network_0/router_level3_0/vc_allocator | Input grants = [ 1 -> 49  5 -> 33  9 -> 56  12 -> 37  21 -> 52  29 -> 44  ], output grants = [ 33 -> 5  37 -> 12  44 -> 29  49 -> 1  52 -> 21  56 -> 9  ].
3 | network_0/router_level3_0 | Assigning VC 1 at output 9 to VC 0 at input 3.
3 | network_0/router_level3_0 | VC allocation failed for VC 0 at input 5.
3 | network_0/router_level3_0 | VC allocation failed for VC 0 at input 7.
3 | network_0/router_level3_0 | Beginning switch allocation for VC 0 at input 1 (front: 1).
3 | network_0/router_level3_0 |   Requesting output 10.0 (non-spec, pri: 0).
3 | network_0/router_level3_0 | Beginning switch allocation for VC 0 at input 2 (front: 2).
3 | network_0/router_level3_0 |   Requesting output 9.0 (non-spec, pri: 0).
3 | network_0/router_level3_0 | Beginning switch allocation for VC 0 at input 4 (front: 4).
3 | network_0/router_level3_0 |   Requesting output 15.0 (non-spec, pri: 0).
3 | network_0/router_level3_0 | Beginning switch allocation for VC 0 at input 6 (front: 6).
3 | network_0/router_level3_0 |   Requesting output 12.0 (non-spec, pri: 0).
3 | network_0/router_level3_0/sw_allocator | Input requests = [ 0 -> [ 8@0 ]  1 -> [ 10@0 ]  2 -> [ 9@0 ]  4 -> [ 15@0 ]  6 -> [ 12@0 ]  ], output requests = [ 8 -> [ 0@0 ]  9 -> [ 2@0 ]  10 -> [ 1@0 ]  12 -> [ 6@0 ]  15 -> [ 4@0 ]  ].
3 | network_0/router_level3_0/sw_allocator | Input grants = [ 0 -> 8  1 -> 10  2 -> 9  4 -> 15  6 -> 12  ], output grants = [ 8 -> 0  9 -> 2  10 -> 1  12 -> 6  15 -> 4  ].
3 | network_0/router_level3_0 | Assigning output 10.0 to VC 0 at input 1.0.
3 | network_0/router_level3_0 | Assigning output 9.0 to VC 0 at input 2.0.
3 | network_0/router_level3_0 | Assigning output 15.0 to VC 0 at input 4.0.
3 | network_0/router_level3_0 | Assigning output 12.0 to VC 0 at input 6.0.
3 | network_0/router_level3_0 | Completed VC allocation for VC 0 at input 3 (front: 3).
3 | network_0/router_level3_0 |   Acquiring assigned VC 1 at output 9.
3 | network_0/router_level3_0/buf_3/vc_0 | Changing state from vc_alloc to active.
3 | network_0/router_level3_0 | Completed VC allocation for VC 0 at input 5 (front: 5).
3 | network_0/router_level3_0 |   No output VC allocated.
3 | network_0/router_level3_0 | Completed VC allocation for VC 0 at input 7 (front: 7).
3 | network_0/router_level3_0 |   No output VC allocated.
3 | network_0/router_level3_0 | Completed switch allocation for VC 0 at input 1 (front: 1).
3 | network_0/router_level3_0 |   Scheduling switch connection from input 1.0 to output 10.0.
3 | network_0/router_level3_0 | Updating lookahead routing information for flit 1.
3 | network_0/router_level3_0 | Completed switch allocation for VC 0 at input 2 (front: 2).
3 | network_0/router_level3_0 |   Scheduling switch connection from input 2.0 to output 9.0.
3 | network_0/router_level3_0 | Updating lookahead routing information for flit 2.
3 | network_0/router_level3_0 | Completed switch allocation for VC 0 at input 4 (front: 4).
3 | network_0/router_level3_0 |   Scheduling switch connection from input 4.0 to output 15.0.
3 | network_0/router_level3_0 | Updating lookahead routing information for flit 4.
3 | network_0/router_level3_0 | Completed switch allocation for VC 0 at input 6 (front: 6).
3 | network_0/router_level3_0 |   Scheduling switch connection from input 6.0 to output 12.0.
3 | network_0/router_level3_0 | Updating lookahead routing information for flit 6.
3 | network_0/router_level3_1 | Beginning switch allocation for VC 0 at input 0 (front: 8).
3 | network_0/router_level3_1 |   Requesting output 11.0 (non-spec, pri: 0).
3 | network_0/router_level3_1 | Beginning switch allocation for VC 0 at input 1 (front: 9).
3 | network_0/router_level3_1 |   Requesting output 15.0 (non-spec, pri: 0).
3 | network_0/router_level3_1 | Beginning switch allocation for VC 0 at input 2 (front: 10).
3 | network_0/router_level3_1 |   Requesting output 9.0 (non-spec, pri: 0).
3 | network_0/router_level3_1/sw_allocator | Input requests = [ 0 -> [ 11@0 ]  1 -> [ 15@0 ]  2 -> [ 9@0 ]  3 -> [ 8@0 ]  6 -> [ 10@0 ]  7 -> [ 12@0 ]  ], output requests = [ 8 -> [ 3@0 ]  9 -> [ 2@0 ]  10 -> [ 6@0 ]  11 -> [ 0@0 ]  12 -> [ 7@0 ]  15 -> [ 1@0 ]  ].
3 | network_0/router_level3_1/sw_allocator | Input grants = [ 0 -> 11  1 -> 15  2 -> 9  3 -> 8  6 -> 10  7 -> 12  ], output grants = [ 8 -> 3  9 -> 2  10 -> 6  11 -> 0  12 -> 7  15 -> 1  ].
3 | network_0/router_level3_1 | Assigning output 11.0 to VC 0 at input 0.0.
3 | network_0/router_level3_1 | Assigning output 15.0 to VC 0 at input 1.0.
3 | network_0/router_level3_1 | Assigning output 9.0 to VC 0 at input 2.0.
3 | network_0/router_level3_1 | Completed switch allocation for VC 0 at input 0 (front: 8).
3 | network_0/router_level3_1 |   Scheduling switch connection from input 0.0 to output 11.0.
3 | network_0/router_level3_1 | Updating lookahead routing information for flit 8.
3 | network_0/router_level3_1 | Completed switch allocation for VC 0 at input 1 (front: 9).
3 | network_0/router_level3_1 |   Scheduling switch connection from input 1.0 to output 15.0.
3 | network_0/router_level3_1 | Updating lookahead routing information for flit 9.
3 | network_0/router_level3_1 | Completed switch allocation for VC 0 at input 2 (front: 10).
3 | network_0/router_level3_1 |   Scheduling switch connection from input 2.0 to output 9.0.
3 | network_0/router_level3_1 | Updating lookahead routing information for flit 10.
4 | network_0/router_level3_0 | Beginning VC allocation for VC 0 at input 5 (front: 5).
4 | network_0/router_level3_0 |   Requesting VC 0 at output 9 (in_pri: 0, out_pri: 0).
4 | network_0/router_level3_0 |   VC 1 at output 9 is in use by VC 0 at input 3 (front flit: 3).
4 | network_0/router_level3_0 |   Requesting VC 2 at output 9 (in_pri: 0, out_pri: 0).
4 | network_0/router_level3_0 |   Requesting VC 3 at output 9 (in_pri: 0, out_pri: 0).
4 | network_0/router_level3_0 | Beginning VC allocation for VC 0 at input 7 (front: 7).
4 | network_0/router_level3_0 |   Requesting VC 0 at output 8 (in_pri: 0, out_pri: 0).
4 | network_0/router_level3_0 |   VC 1 at output 8 is in use by VC 1 at input 1 (front flit: 4097).
4 | network_0/router_level3_0 |   Requesting VC 2 at output 8 (in_pri: 0, out_pri: 0).
4 | network_0/router_level3_0 |   Requesting VC 3 at output 8 (in_pri: 0, out_pri: 0).
4 | network_0/router_level3_0/vc_allocator | Input requests = [ 2 -> [ 45@0 46@0 47@0 ]  6 -> [ 57@0 58@0 59@0 ]  10 -> [ 57@0 58@0 59@0 ]  13 -> [ 57@0 58@0 59@0 ]  14 -> [ 32@0 34@0 35@0 ]  17 -> [ 48@0 50@0 51@0 ]  18 -> [ 32@0 34@0 35@0 ]  20 -> [ 36@0 38@0 39@0 ]  22 -> [ 32@0 34@0 35@0 ]  25 -> [ 53@0 54@0 55@0 ]  26 -> [ 57@0 58@0 59@0 ]  28 -> [ 32@0 34@0 35@0 ]  30 -> [ 48@0 50@0 51@0 ]  ], output requests = [ 32 -> [ 14@0 18@0 22@0 28@0 ]  34 -> [ 14@0 18@0 22@0 28@0 ]  35 -> [ 14@0 18@0 22@0 28@0 ]  36 -> [ 20@0 ]  38 -> [ 20@0 ]  39 -> [ 20@0 ]  45 -> [ 2@0 ]  46 -> [ 2@0 ]  47 -> [ 2@0 ]  48 -> [ 17@0 30@0 ]  50 -> [ 17@0 30@0 ]  51 -> [ 17@0 30@0 ]  53 -> [ 25@0 ]  54 -> [ 25@0 ]  55 -> [ 25@0 ]  57 -> [ 6@0 10@0 13@0 26@0 ]  58 -> [ 6@0 10@0 13@0 26@0 ]  59 -> [ 6@0 10@0 13@0 26@0 ]  ].
4 | network_0/router_level3_0/vc_allocator | Input grants = [ 2 -> 45  6 -> 57  14 -> 32  20 -> 36  25 -> 53  30 -> 48  ], output grants = [ 32 -> 14  36 -> 20  45 -> 2  48 -> 30  53 -> 25  57 -> 6  ].
4 | network_0/router_level3_0 | Assigning VC 0 at output 9 to VC 0 at input 5.
4 | network_0/router_level3_0 | VC allocation failed for VC 0 at input 7.
4 | network_0/router_level3_0 | Beginning switch allocation for VC 0 at input 3 (front: 3).
4 | network_0/router_level3_0 |   Requesting output 9.0 (non-spec, pri: 0).
4 | network_0/router_level3_0/sw_allocator | Input requests = [ 0 -> [ 12@0 ]  1 -> [ 8@0 ]  2 -> [ 14@0 ]  3 -> [ 9@0 ]  5 -> [ 13@0 ]  7 -> [ 11@0 ]  ], output requests = [ 8 -> [ 1@0 ]  9 -> [ 3@0 ]  11 -> [ 7@0 ]  12 -> [ 0@0 ]  13 -> [ 5@0 ]  14 -> [ 2@0 ]  ].
4 | network_0/router_level3_0/sw_allocator | Input grants = [ 0 -> 12  1 -> 8  2 -> 14  3 -> 9  5 -> 13  7 -> 11  ], output grants = [ 8 -> 1  9 -> 3  11 -> 7  12 -> 0  13 -> 5  14 -> 2  ].
4 | network_0/router_level3_0 | Assigning output 9.0 to VC 0 at input 3.0.
4 | network_0/router_level3_0 | Beginning crossbar traversal for flit 1 from input 1.0 to output 10.0.
4 | network_0/router_level3_0 | Beginning crossbar traversal for flit 2 from input 2.0 to output 9.0.
4 | network_0/router_level3_0 | Beginning crossbar traversal for flit 4 from input 4.0 to output 15.0.
4 | network_0/router_level3_0 | Beginning crossbar traversal for flit 6 from input 6.0 to output 12.0.
4 | network_0/router_level3_0 | Completed VC allocation for VC 0 at input 5 (front: 5).
4 | network_0/router_level3_0 |   Acquiring assigned VC 0 at output 9.
4 | network_0/router_level3_0/buf_5/vc_0 | Changing state from vc_alloc to active.
4 | network_0/router_level3_0 | Completed VC allocation for VC 0 at input 7 (front: 7).
4 | network_0/router_level3_0 |   No output VC allocated.
4 | network_0/router_level3_0 | Completed switch allocation for VC 0 at input 3 (front: 3).
4 | network_0/router_level3_0 |   Scheduling switch connection from input 3.0 to output 9.0.
4 | network_0/router_level3_0 | Updating lookahead routing information for flit 3.
4 | network_0/router_level3_0 | Completed crossbar traversal for flit 1 from input 1.0 to output 10.0.
4 | network_0/router_level3_0 | Buffering flit 1 at output 10.
4 | network_0/router_level3_0 | Completed crossbar traversal for flit 2 from input 2.0 to output 9.0.
4 | network_0/router_level3_0 | Buffering flit 2 at output 9.
4 | network_0/router_level3_0 | Completed crossbar traversal for flit 4 from input 4.0 to output 15.0.
4 | network_0/router_level3_0 | Buffering flit 4 at output 15.
4 | network_0/router_level3_0 | Completed crossbar traversal for flit 6 from input 6.0 to output 12.0.
4 | network_0/router_level3_0 | Buffering flit 6 at output 12.
4 | network_0/router_level3_1 | Beginning crossbar traversal for flit 8 from input 0.0 to output 11.0.
4 | network_0/router_level3_1 | Beginning crossbar traversal for flit 9 from input 1.0 to output 15.0.
4 | network_0/router_level3_1 | Beginning crossbar traversal for flit 10 from input 2.0 to output 9.0.
4 | network_0/router_level3_1 | Completed crossbar traversal for flit 8 from input 0.0 to output 11.0.
4 | network_0/router_level3_1 | Buffering flit 8 at output 11.
4 | network_0/router_level3_1 | Completed crossbar traversal for flit 9 from input 1.0 to output 15.0.
4 | network_0/router_level3_1 | Buffering flit 9 at output 15.
4 | network_0/router_level3_1 | Completed crossbar traversal for flit 10 from input 2.0 to output 9.0.
4 | network_0/router_level3_1 | Buffering flit 10 at output 9.
4 | network_0/router_level3_0 | Sending flit 2 to channel at output 9.
4 | network_0/router_level3_0 | Sending flit 1 to channel at output 10.
4 | network_0/router_level3_0 | Sending flit 6 to channel at output 12.
4 | network_0/router_level3_0 | Sending flit 4 to channel at output 15.
4 | network_0/router_level3_1 | Sending flit 10 to channel at output 9.
4 | network_0/router_level3_1 | Sending flit 8 to channel at output 11.
4 | network_0/router_level3_1 | Sending flit 9 to channel at output 15.
5 | network_0/network_0_fchan_20481 | Beginning channel traversal for flit 2 with delay 1.
5 | network_0/network_0_fchan_20482 | Beginning channel traversal for flit 1 with delay 1.
5 | network_0/network_0_fchan_20484 | Beginning channel traversal for flit 6 with delay 1.
5 | network_0/network_0_fchan_20487 | Beginning channel traversal for flit 4 with delay 1.
5 | network_0/network_0_fchan_20489 | Beginning channel traversal for flit 10 with delay 1.
5 | network_0/network_0_fchan_20491 | Beginning channel traversal for flit 8 with delay 1.
5 | network_0/network_0_fchan_20495 | Beginning channel traversal for flit 9 with delay 1.
5 | network_0/router_level3_0 | Beginning VC allocation for VC 0 at input 7 (front: 7).
5 | network_0/router_level3_0 |   VC 0 at output 8 is in use by VC 2 at input 3 (front flit: 8195).
5 | network_0/router_level3_0 |   Requesting VC 1 at output 8 (in_pri: 0, out_pri: 0).
5 | network_0/router_level3_0 |   Requesting VC 2 at output 8 (in_pri: 0, out_pri: 0).
5 | network_0/router_level3_0 |   Requesting VC 3 at output 8 (in_pri: 0, out_pri: 0).
5 | network_0/router_level3_0/vc_allocator | Input requests = [ 3 -> [ 52@0 54@0 55@0 ]  7 -> [ 52@0 54@0 55@0 ]  10 -> [ 56@0 58@0 59@0 ]  11 -> [ 52@0 54@0 55@0 ]  13 -> [ 56@0 58@0 59@0 ]  15 -> [ 37@0 38@0 39@0 ]  17 -> [ 49@0 50@0 51@0 ]  18 -> [ 33@0 34@0 35@0 ]  19 -> [ 52@0 54@0 55@0 ]  22 -> [ 33@0 34@0 35@0 ]  23 -> [ 52@0 54@0 55@0 ]  26 -> [ 56@0 58@0 59@0 ]  27 -> [ 60@0 61@0 62@0 63@0 ]  28 -> [ 33@0 34@0 35@0 ]  31 -> [ 56@0 58@0 59@0 ]  ], output requests = [ 33 -> [ 18@0 22@0 28@0 ]  34 -> [ 18@0 22@0 28@0 ]  35 -> [ 18@0 22@0 28@0 ]  37 -> [ 15@0 ]  38 -> [ 15@0 ]  39 -> [ 15@0 ]  49 -> [ 17@0 ]  50 -> [ 17@0 ]  51 -> [ 17@0 ]  52 -> [ 3@0 7@0 11@0 19@0 23@0 ]  54 -> [ 3@0 7@0 11@0 19@0 23@0 ]  55 -> [ 3@0 7@0 11@0 19@0 23@0 ]  56 -> [ 10@0 13@0 26@0 31@0 ]  58 -> [ 10@0 13@0 26@0 31@0 ]  59 -> [ 10@0 13@0 26@0 31@0 ]  60 -> [ 27@0 ]  61 -> [ 27@0 ]  62 -> [ 27@0 ]  63 -> [ 27@0 ]  ].
5 | network_0/router_level3_0/vc_allocator | Input grants = [ 10 -> 56  15 -> 37  17 -> 49  18 -> 33  23 -> 52  27 -> 60  ], output grants = [ 33 -> 18  37 -> 15  49 -> 17  52 -> 23  56 -> 10  60 -> 27  ].
5 | network_0/router_level3_0 | VC allocation failed for VC 0 at input 7.
5 | network_0/router_level3_0 | Beginning switch allocation for VC 0 at input 5 (front: 5).
5 | network_0/router_level3_0 |   Requesting output 9.0 (non-spec, pri: 0).
5 | network_0/router_level3_0/sw_allocator | Input requests = [ 0 -> [ 11@0 ]  1 -> [ 14@0 ]  3 -> [ 8@0 ]  5 -> [ 9@0 ]  6 -> [ 13@0 ]  7 -> [ 12@0 ]  ], output requests = [ 8 -> [ 3@0 ]  9 -> [ 5@0 ]  11 -> [ 0@0 ]  12 -> [ 7@0 ]  13 -> [ 6@0 ]  14 -> [ 1@0 ]  ].
5 | network_0/router_level3_0/sw_allocator | Input grants = [ 0 -> 11  1 -> 14  3 -> 8  5 -> 9  6 -> 13  7 -> 12  ], output grants = [ 8 -> 3  9 -> 5  11 -> 0  12 -> 7  13 -> 6  14 -> 1  ].
5 | network_0/router_level3_0 | Assigning output 9.0 to VC 0 at input 5.0.
5 | network_0/router_level3_0 | Beginning crossbar traversal for flit 3 from input 3.0 to output 9.0.
5 | network_0/router_level3_0 | Completed VC allocation for VC 0 at input 7 (front: 7).
5 | network_0/router_level3_0 |   No output VC allocated.
5 | network_0/router_level3_0 | Completed switch allocation for VC 0 at input 5 (front: 5).
5 | network_0/router_level3_0 |   Scheduling switch connection from input 5.0 to output 9.0.
5 | network_0/router_level3_0 | Updating lookahead routing information for flit 5.
5 | network_0/router_level3_0 | Completed crossbar traversal for flit 3 from input 3.0 to output 9.0.
5 | network_0/router_level3_0 | Buffering flit 3 at output 9.
5 | network_0/network_0_fchan_20481 | Completed channel traversal for flit 2.
5 | network_0/network_0_fchan_20482 | Completed channel traversal for flit 1.
5 | network_0/network_0_fchan_20484 | Completed channel traversal for flit 6.
5 | network_0/network_0_fchan_20487 | Completed channel traversal for flit 4.
5 | network_0/network_0_fchan_20489 | Completed channel traversal for flit 10.
5 | network_0/network_0_fchan_20491 | Completed channel traversal for flit 8.
5 | network_0/network_0_fchan_20495 | Completed channel traversal for flit 9.
5 | network_0/router_level3_0 | Sending flit 3 to channel at output 9.
6 | network_0/network_0_fchan_20481 | Beginning channel traversal for flit 3 with delay 1.
6 | network_0/router_level2_1 | Received flit 2 from channel at input 0.
6 | network_0/router_level2_1 | Received flit 10 from channel at input 1.
6 | network_0/router_level2_2 | Received flit 1 from channel at input 0.
6 | network_0/router_level2_3 | Received flit 8 from channel at input 1.
6 | network_0/router_level2_4 | Received flit 6 from channel at input 0.
6 | network_0/router_level2_7 | Received flit 4 from channel at input 0.
6 | network_0/router_level2_7 | Received flit 9 from channel at input 1.
6 | network_0/router_level2_1 | Adding flit 2 to VC 0 at input 0 (state: idle, empty).
6 | network_0/router_level2_1 | Using precomputed lookahead routing information for VC 0 at input 0 (front: 2).
6 | network_0/router_level2_1/buf_0/vc_0 | Changing state from idle to vc_alloc.
6 | network_0/router_level2_1 | Adding flit 10 to VC 0 at input 1 (state: idle, empty).
6 | network_0/router_level2_1 | Using precomputed lookahead routing information for VC 0 at input 1 (front: 10).
6 | network_0/router_level2_1/buf_1/vc_0 | Changing state from idle to vc_alloc.
6 | network_0/router_level2_1 | Beginning VC allocation for VC 0 at input 0 (front: 2).
6 | network_0/router_level2_1 |   Requesting VC 0 at output 13 (in_pri: 0, out_pri: 0).
6 | network_0/router_level2_1 |   Requesting VC 1 at output 13 (in_pri: 0, out_pri: 0).
6 | network_0/router_level2_1 |   Requesting VC 2 at output 13 (in_pri: 0, out_pri: 0).
6 | network_0/router_level2_1 |   Requesting VC 3 at output 13 (in_pri: 0, out_pri: 0).
6 | network_0/router_level2_1 | Beginning VC allocation for VC 0 at input 1 (front: 10).
6 | network_0/router_level2_1 |   Requesting VC 0 at output 14 (in_pri: 0, out_pri: 0).
6 | network_0/router_level2_1 |   Requesting VC 1 at output 14 (in_pri: 0, out_pri: 0).
6 | network_0/router_level2_1 |   Requesting VC 2 at output 14 (in_pri: 0, out_pri: 0).
6 | network_0/router_level2_1 |   Requesting VC 3 at output 14 (in_pri: 0, out_pri: 0).
6 | network_0/router_level2_1/vc_allocator | Input requests = [ 0 -> [ 52@0 53@0 54@0 55@0 ]  4 -> [ 56@0 57@0 58@0 59@0 ]  8 -> [ 40@0 41@0 42@0 43@0 ]  20 -> [ 40@0 41@0 42@0 43@0 ]  28 -> [ 56@0 57@0 58@0 59@0 ]  ], output requests = [ 40 -> [ 8@0 20@0 ]  41 -> [ 8@0 20@0 ]  42 -> [ 8@0 20@0 ]  43 -> [ 8@0 20@0 ]  52 -> [ 0@0 ]  53 -> [ 0@0 ]  54 -> [ 0@0 ]  55 -> [ 0@0 ]  56 -> [ 4@0 28@0 ]  57 -> [ 4@0 28@0 ]  58 -> [ 4@0 28@0 ]  59 -> [ 4@0 28@0 ]  ].
6 | network_0/router_level2_1/vc_allocator | Input grants = [ 0 -> 52  4 -> 56  8 -> 40  ], output grants = [ 40 -> 8  52 -> 0  56 -> 4  ].
6 | network_0/router_level2_1 | Assigning VC 0 at output 13 to VC 0 at input 0.
6 | network_0/router_level2_1 | Assigning VC 0 at output 14 to VC 0 at input 1.
6 | network_0/router_level2_1 | Completed VC allocation for VC 0 at input 0 (front: 2).
6 | network_0/router_level2_1 |   Acquiring assigned VC 0 at output 13.
6 | network_0/router_level2_1/buf_0/vc_0 | Changing state from vc_alloc to active.
6 | network_0/router_level2_1 | Completed VC allocation for VC 0 at input 1 (front: 10).
6 | network_0/router_level2_1 |   Acquiring assigned VC 0 at output 14.
6 | network_0/router_level2_1/buf_1/vc_0 | Changing state from vc_alloc to active.
6 | network_0/router_level2_2 | Adding flit 1 to VC 0 at input 0 (state: idle, empty).
6 | network_0/router_level2_2 | Using precomputed lookahead routing information for VC 0 at input 0 (front: 1).
6 | network_0/router_level2_2/buf_0/vc_0 | Changing state from idle to vc_alloc.
6 | network_0/router_level2_2 | Beginning VC allocation for VC 0 at input 0 (front: 1).
6 | network_0/router_level2_2 |   Requesting VC 0 at output 13 (in_pri: 0, out_pri: 0).
6 | network_0/router_level2_2 |   Requesting VC 1 at output 13 (in_pri: 0, out_pri: 0).
6 | network_0/router_level2_2 |   Requesting VC 2 at output 13 (in_pri: 0, out_pri: 0).
6 | network_0/router_level2_2 |   Requesting VC 3 at output 13 (in_pri: 0, out_pri: 0).
6 | network_0/router_level2_2/vc_allocator | Input requests = [ 0 -> [ 52@0 53@0 54@0 55@0 ]  4 -> [ 60@0 61@0 62@0 63@0 ]  12 -> [ 32@0 33@0 34@0 35@0 ]  20 -> [ 56@0 57@0 58@0 59@0 ]  24 -> [ 60@0 61@0 62@0 63@0 ]  28 -> [ 48@0 49@0 50@0 51@0 ]  ], output requests = [ 32 -> [ 12@0 ]  33 -> [ 12@0 ]  34 -> [ 12@0 ]  35 -> [ 12@0 ]  48 -> [ 28@0 ]  49 -> [ 28@0 ]  50 -> [ 28@0 ]  51 -> [ 28@0 ]  52 -> [ 0@0 ]  53 -> [ 0@0 ]  54 -> [ 0@0 ]  55 -> [ 0@0 ]  56 -> [ 20@0 ]  57 -> [ 20@0 ]  58 -> [ 20@0 ]  59 -> [ 20@0 ]  60 -> [ 4@0 24@0 ]  61 -> [ 4@0 24@0 ]  62 -> [ 4@0 24@0 ]  63 -> [ 4@0 24@0 ]  ].
6 | network_0/router_level2_2/vc_allocator | Input grants = [ 0 -> 52  4 -> 60  12 -> 32  20 -> 56  28 -> 48  ], output grants = [ 32 -> 12  48 -> 28  52 -> 0  56 -> 20  60 -> 4  ].
6 | network_0/router_level2_2 | Assigning VC 0 at output 13 to VC 0 at input 0.
6 | network_0/router_level2_2 | Completed VC allocation for VC 0 at input 0 (front: 1).
6 | network_0/router_level2_2 |   Acquiring assigned VC 0 at output 13.
6 | network_0/router_level2_2/buf_0/vc_0 | Changing state from vc_alloc to active.
6 | network_0/router_level2_3 | Adding flit 8 to VC 0 at input 1 (state: idle, empty).
6 | network_0/router_level2_3 | Using precomputed lookahead routing information for VC 0 at input 1 (front: 8).
6 | network_0/router_level2_3/buf_1/vc_0 | Changing state from idle to vc_alloc.
6 | network_0/router_level2_3 | Beginning VC allocation for VC 0 at input 1 (front: 8).
6 | network_0/router_level2_3 |   Requesting VC 0 at output 11 (in_pri: 0, out_pri: 0).
6 | network_0/router_level2_3 |   Requesting VC 1 at output 11 (in_pri: 0, out_pri: 0).
6 | network_0/router_level2_3 |   Requesting VC 2 at output 11 (in_pri: 0, out_pri: 0).
6 | network_0/router_level2_3 |   Requesting VC 3 at output 11 (in_pri: 0, out_pri: 0).
6 | network_0/router_level2_3/vc_allocator | Input requests = [ 4 -> [ 44@0 45@0 46@0 47@0 ]  8 -> [ 60@0 61@0 62@0 63@0 ]  16 -> [ 52@0 53@0 54@0 55@0 ]  20 -> [ 48@0 49@0 50@0 51@0 ]  24 -> [ 48@0 49@0 50@0 51@0 ]  ], output requests = [ 44 -> [ 4@0 ]  45 -> [ 4@0 ]  46 -> [ 4@0 ]  47 -> [ 4@0 ]  48 -> [ 20@0 24@0 ]  49 -> [ 20@0 24@0 ]  50 -> [ 20@0 24@0 ]  51 -> [ 20@0 24@0 ]  52 -> [ 16@0 ]  53 -> [ 16@0 ]  54 -> [ 16@0 ]  55 -> [ 16@0 ]  60 -> [ 8@0 ]  61 -> [ 8@0 ]  62 -> [ 8@0 ]  63 -> [ 8@0 ]  ].
6 | network_0/router_level2_3/vc_allocator | Input grants = [ 4 -> 44  8 -> 60  16 -> 52  20 -> 48  ], output grants = [ 44 -> 4  48 -> 20  52 -> 16  60 -> 8  ].
6 | network_0/router_level2_3 | Assigning VC 0 at output 11 to VC 0 at input 1.
6 | network_0/router_level2_3 | Completed VC allocation for VC 0 at input 1 (front: 8).
6 | network_0/router_level2_3 |   Acquiring assigned VC 0 at output 11.
6 | network_0/router_level2_3/buf_1/vc_0 | Changing state from vc_alloc to active.
6 | network_0/router_level2_4 | Adding flit 6 to VC 0 at input 0 (state: idle, empty).
6 | network_0/router_level2_4 | Using precomputed lookahead routing information for VC 0 at input 0 (front: 6).
6 | network_0/router_level2_4/buf_0/vc_0 | Changing state from idle to vc_alloc.
6 | network_0/router_level2_4 | Beginning VC allocation for VC 0 at input 0 (front: 6).
6 | network_0/router_level2_4 |   Requesting VC 0 at output 14 (in_pri: 0, out_pri: 0).
6 | network_0/router_level2_4 |   Requesting VC 1 at output 14 (in_pri: 0, out_pri: 0).
6 | network_0/router_level2_4 |   Requesting VC 2 at output 14 (in_pri: 0, out_pri: 0).
6 | network_0/router_level2_4 |   Requesting VC 3 at output 14 (in_pri: 0, out_pri: 0).
6 | network_0/router_level2_4/vc_allocator | Input requests = [ 0 -> [ 56@0 57@0 58@0 59@0 ]  4 -> [ 60@0 61@0 62@0 63@0 ]  8 -> [ 44@0 45@0 46@0 47@0 ]  12 -> [ 40@0 41@0 42@0 43@0 ]  16 -> [ 36@0 37@0 38@0 39@0 ]  20 -> [ 36@0 37@0 38@0 39@0 ]  24 -> [ 32@0 33@0 34@0 35@0 ]  ], output requests = [ 32 -> [ 24@0 ]  33 -> [ 24@0 ]  34 -> [ 24@0 ]  35 -> [ 24@0 ]  36 -> [ 16@0 20@0 ]  37 -> [ 16@0 20@0 ]  38 -> [ 16@0 20@0 ]  39 -> [ 16@0 20@0 ]  40 -> [ 12@0 ]  41 -> [ 12@0 ]  42 -> [ 12@0 ]  43 -> [ 12@0 ]  44 -> [ 8@0 ]  45 -> [ 8@0 ]  46 -> [ 8@0 ]  47 -> [ 8@0 ]  56 -> [ 0@0 ]  57 -> [ 0@0 ]  58 -> [ 0@0 ]  59 -> [ 0@0 ]  60 -> [ 4@0 ]  61 -> [ 4@0 ]  62 -> [ 4@0 ]  63 -> [ 4@0 ]  ].
6 | network_0/router_level2_4/vc_allocator | Input grants = [ 0 -> 56  4 -> 60  8 -> 44  12 -> 40  16 -> 36  24 -> 32  ], output grants = [ 32 -> 24  36 -> 16  40 -> 12  44 -> 8  56 -> 0  60 -> 4  ].
6 | network_0/router_level2_4 | Assigning VC 0 at output 14 to VC 0 at input 0.
6 | network_0/router_level2_4 | Completed VC allocation for VC 0 at input 0 (front: 6).
6 | network_0/router_level2_4 |   Acquiring assigned VC 0 at output 14.
6 | network_0/router_level2_4/buf_0/vc_0 | Changing state from vc_alloc to active.
6 | network_0/router_level2_7 | Adding flit 4 to VC 0 at input 0 (state: idle, empty).
6 | network_0/router_level2_7 | Using precomputed lookahead routing information for VC 0 at input 0 (front: 4).
6 | network_0/router_level2_7/buf_0/vc_0 | Changing state from idle to vc_alloc.
6 | network_0/router_level2_7 | Adding flit 9 to VC 0 at input 1 (state: idle, empty).
6 | network_0/router_level2_7 | Using precomputed lookahead routing information for VC 0 at input 1 (front: 9).
6 | network_0/router_level2_7/buf_1/vc_0 | Changing state from idle to vc_alloc.
6 | network_0/router_level2_7 | Beginning VC allocation for VC 0 at input 0 (front: 4).
6 | network_0/router_level2_7 |   Requesting VC 0 at output 15 (in_pri: 0, out_pri: 0).
6 | network_0/router_level2_7 |   Requesting VC 1 at output 15 (in_pri: 0, out_pri: 0).
6 | network_0/router_level2_7 |   Requesting VC 2 at output 15 (in_pri: 0, out_pri: 0).
6 | network_0/router_level2_7 |   Requesting VC 3 at output 15 (in_pri: 0, out_pri: 0).
6 | network_0/router_level2_7 | Beginning VC allocation for VC 0 at input 1 (front: 9).
6 | network_0/router_level2_7 |   Requesting VC 0 at output 12 (in_pri: 0, out_pri: 0).
6 | network_0/router_level2_7 |   Requesting VC 1 at output 12 (in_pri: 0, out_pri: 0).
6 | network_0/router_level2_7 |   Requesting VC 2 at output 12 (in_pri: 0, out_pri: 0).
6 | network_0/router_level2_7 |   Requesting VC 3 at output 12 (in_pri: 0, out_pri: 0).
6 | network_0/router_level2_7/vc_allocator | Input requests = [ 0 -> [ 60@0 61@0 62@0 63@0 ]  4 -> [ 48@0 49@0 50@0 51@0 ]  12 -> [ 56@0 57@0 58@0 59@0 ]  24 -> [ 60@0 61@0 62@0 63@0 ]  28 -> [ 60@0 61@0 62@0 63@0 ]  ], output requests = [ 48 -> [ 4@0 ]  49 -> [ 4@0 ]  50 -> [ 4@0 ]  51 -> [ 4@0 ]  56 -> [ 12@0 ]  57 -> [ 12@0 ]  58 -> [ 12@0 ]  59 -> [ 12@0 ]  60 -> [ 0@0 24@0 28@0 ]  61 -> [ 0@0 24@0 28@0 ]  62 -> [ 0@0 24@0 28@0 ]  63 -> [ 0@0 24@0 28@0 ]  ].
6 | network_0/router_level2_7/vc_allocator | Input grants = [ 0 -> 60  4 -> 48  12 -> 56  ], output grants = [ 48 -> 4  56 -> 12  60 -> 0  ].
6 | network_0/router_level2_7 | Assigning VC 0 at output 15 to VC 0 at input 0.
6 | network_0/router_level2_7 | Assigning VC 0 at output 12 to VC 0 at input 1.
6 | network_0/router_level2_7 | Completed VC allocation for VC 0 at input 0 (front: 4).
6 | network_0/router_level2_7 |   Acquiring assigned VC 0 at output 15.
6 | network_0/router_level2_7/buf_0/vc_0 | Changing state from vc_alloc to active.
6 | network_0/router_level2_7 | Completed VC allocation for VC 0 at input 1 (front: 9).
6 | network_0/router_level2_7 |   Acquiring assigned VC 0 at output 12.
6 | network_0/router_level2_7/buf_1/vc_0 | Changing state from vc_alloc to active.
6 | network_0/router_level3_0 | Beginning VC allocation for VC 0 at input 7 (front: 7).
6 | network_0/router_level3_0 |   Requesting VC 0 at output 8 (in_pri: 0, out_pri: 0).
6 | network_0/router_level3_0 |   VC 1 at output 8 is in use by VC 2 at input 4 (front flit: 8196).
6 | network_0/router_level3_0 |   Requesting VC 2 at output 8 (in_pri: 0, out_pri: 0).
6 | network_0/router_level3_0 |   Requesting VC 3 at output 8 (in_pri: 0, out_pri: 0).
6 | network_0/router_level3_0/vc_allocator | Input requests = [ 0 -> [ 57@0 58@0 59@0 ]  3 -> [ 53@0 54@0 55@0 ]  4 -> [ 53@0 54@0 55@0 ]  7 -> [ 53@0 54@0 55@0 ]  8 -> [ 36@0 38@0 39@0 ]  11 -> [ 53@0 54@0 55@0 ]  12 -> [ 40@0 41@0 42@0 43@0 ]  13 -> [ 57@0 58@0 59@0 ]  16 -> [ 36@0 38@0 39@0 ]  19 -> [ 53@0 54@0 55@0 ]  20 -> [ 32@0 34@0 35@0 ]  22 -> [ 32@0 34@0 35@0 ]  24 -> [ 53@0 54@0 55@0 ]  26 -> [ 57@0 58@0 59@0 ]  28 -> [ 32@0 34@0 35@0 ]  31 -> [ 57@0 58@0 59@0 ]  ], output requests = [ 32 -> [ 20@0 22@0 28@0 ]  34 -> [ 20@0 22@0 28@0 ]  35 -> [ 20@0 22@0 28@0 ]  36 -> [ 8@0 16@0 ]  38 -> [ 8@0 16@0 ]  39 -> [ 8@0 16@0 ]  40 -> [ 12@0 ]  41 -> [ 12@0 ]  42 -> [ 12@0 ]  43 -> [ 12@0 ]  53 -> [ 3@0 4@0 7@0 11@0 19@0 24@0 ]  54 -> [ 3@0 4@0 7@0 11@0 19@0 24@0 ]  55 -> [ 3@0 4@0 7@0 11@0 19@0 24@0 ]  57 -> [ 0@0 13@0 26@0 31@0 ]  58 -> [ 0@0 13@0 26@0 31@0 ]  59 -> [ 0@0 13@0 26@0 31@0 ]  ].
6 | network_0/router_level3_0/vc_allocator | Input grants = [ 3 -> 53  8 -> 38  12 -> 40  13 -> 57  16 -> 36  20 -> 32  ], output grants = [ 32 -> 20  36 -> 16  38 -> 8  40 -> 12  53 -> 3  57 -> 13  ].
6 | network_0/router_level3_0 | VC allocation failed for VC 0 at input 7.
6 | network_0/router_level3_0 | Beginning crossbar traversal for flit 5 from input 5.0 to output 9.0.
6 | network_0/router_level3_0 | Completed VC allocation for VC 0 at input 7 (front: 7).
6 | network_0/router_level3_0 |   No output VC allocated.
6 | network_0/router_level3_0 | Completed crossbar traversal for flit 5 from input 5.0 to output 9.0.
6 | network_0/router_level3_0 | Buffering flit 5 at output 9.
6 | network_0/network_0_fchan_20481 | Completed channel traversal for flit 3.
6 | network_0/router_level3_0 | Sending flit 5 to channel at output 9.
7 | network_0/network_0_fchan_20481 | Beginning channel traversal for flit 5 with delay 1.
7 | network_0/router_level2_1 | Received flit 3 from channel at input 0.
7 | network_0/router_level2_1 | Adding flit 3 to VC 1 at input 0 (state: idle, empty).
7 | network_0/router_level2_1 | Using precomputed lookahead routing information for VC 1 at input 0 (front: 3).
7 | network_0/router_level2_1/buf_0/vc_1 | Changing state from idle to vc_alloc.
7 | network_0/router_level2_1 | Beginning VC allocation for VC 1 at input 0 (front: 3).
7 | network_0/router_level2_1 |   Requesting VC 0 at output 9 (in_pri: 0, out_pri: 0).
7 | network_0/router_level2_1 |   Requesting VC 1 at output 9 (in_pri: 0, out_pri: 0).
7 | network_0/router_level2_1 |   Requesting VC 2 at output 9 (in_pri: 0, out_pri: 0).
7 | network_0/router_level2_1 |   Requesting VC 3 at output 9 (in_pri: 0, out_pri: 0).
7 | network_0/router_level2_1/vc_allocator | Input requests = [ 1 -> [ 36@0 37@0 38@0 39@0 ]  5 -> [ 48@0 49@0 50@0 51@0 ]  9 -> [ 57@0 58@0 59@0 ]  12 -> [ 57@0 58@0 59@0 ]  16 -> [ 44@0 45@0 46@0 47@0 ]  20 -> [ 41@0 42@0 43@0 ]  21 -> [ 48@0 49@0 50@0 51@0 ]  24 -> [ 41@0 42@0 43@0 ]  28 -> [ 57@0 58@0 59@0 ]  ], output requests = [ 36 -> [ 1@0 ]  37 -> [ 1@0 ]  38 -> [ 1@0 ]  39 -> [ 1@0 ]  41 -> [ 20@0 24@0 ]  42 -> [ 20@0 24@0 ]  43 -> [ 20@0 24@0 ]  44 -> [ 16@0 ]  45 -> [ 16@0 ]  46 -> [ 16@0 ]  47 -> [ 16@0 ]  48 -> [ 5@0 21@0 ]  49 -> [ 5@0 21@0 ]  50 -> [ 5@0 21@0 ]  51 -> [ 5@0 21@0 ]  57 -> [ 9@0 12@0 28@0 ]  58 -> [ 9@0 12@0 28@0 ]  59 -> [ 9@0 12@0 28@0 ]  ].
7 | network_0/router_level2_1/vc_allocator | Input grants = [ 1 -> 36  5 -> 48  9 -> 57  16 -> 44  20 -> 41  ], output grants = [ 36 -> 1  41 -> 20  44 -> 16  48 -> 5  57 -> 9  ].
7 | network_0/router_level2_1 | Assigning VC 0 at output 9 to VC 1 at input 0.
7 | network_0/router_level2_1 | Beginning switch allocation for VC 0 at input 0 (front: 2).
7 | network_0/router_level2_1 |   Requesting output 13.0 (non-spec, pri: 0).
7 | network_0/router_level2_1 | Beginning switch allocation for VC 0 at input 1 (front: 10).
7 | network_0/router_level2_1 |   Requesting output 14.0 (non-spec, pri: 0).
7 | network_0/router_level2_1/sw_allocator | Input requests = [ 0 -> [ 13@0 ]  1 -> [ 14@0 ]  2 -> [ 10@0 ]  ], output requests = [ 10 -> [ 2@0 ]  13 -> [ 0@0 ]  14 -> [ 1@0 ]  ].
7 | network_0/router_level2_1/sw_allocator | Input grants = [ 0 -> 13  1 -> 14  2 -> 10  ], output grants = [ 10 -> 2  13 -> 0  14 -> 1  ].
7 | network_0/router_level2_1 | Assigning output 13.0 to VC 0 at input 0.0.
7 | network_0/router_level2_1 | Assigning output 14.0 to VC 0 at input 1.0.
7 | network_0/router_level2_1 | Completed VC allocation for VC 1 at input 0 (front: 3).
7 | network_0/router_level2_1 |   Acquiring assigned VC 0 at output 9.
7 | network_0/router_level2_1/buf_0/vc_1 | Changing state from vc_alloc to active.
7 | network_0/router_level2_1 | Completed switch allocation for VC 0 at input 0 (front: 2).
7 | network_0/router_level2_1 |   Scheduling switch connection from input 0.0 to output 13.0.
7 | network_0/router_level2_1 | Updating lookahead routing information for flit 2.
7 | network_0/router_level2_1 | Completed switch allocation for VC 0 at input 1 (front: 10).
7 | network_0/router_level2_1 |   Scheduling switch connection from input 1.0 to output 14.0.
7 | network_0/router_level2_1 | Updating lookahead routing information for flit 10.
7 | network_0/router_level2_2 | Beginning switch allocation for VC 0 at input 0 (front: 1).
7 | network_0/router_level2_2 |   Requesting output 13.0 (non-spec, pri: 0).
7 | network_0/router_level2_2/sw_allocator | Input requests = [ 0 -> [ 13@0 ]  1 -> [ 15@0 ]  3 -> [ 8@0 ]  5 -> [ 14@0 ]  7 -> [ 12@0 ]  ], output requests = [ 8 -> [ 3@0 ]  12 -> [ 7@0 ]  13 -> [ 0@0 ]  14 -> [ 5@0 ]  15 -> [ 1@0 ]  ].
7 | network_0/router_level2_2/sw_allocator | Input grants = [ 0 -> 13  1 -> 15  3 -> 8  5 -> 14  7 -> 12  ], output grants = [ 8 -> 3  12 -> 7  13 -> 0  14 -> 5  15 -> 1  ].
7 | network_0/router_level2_2 | Assigning output 13.0 to VC 0 at input 0.0.
7 | network_0/router_level2_2 | Completed switch allocation for VC 0 at input 0 (front: 1).
7 | network_0/router_level2_2 |   Scheduling switch connection from input 0.0 to output 13.0.
7 | network_0/router_level2_2 | Updating lookahead routing information for flit 1.
7 | network_0/router_level2_3 | Beginning switch allocation for VC 0 at input 1 (front: 8).
7 | network_0/router_level2_3 |   Requesting output 11.0 (non-spec, pri: 0).
7 | network_0/router_level2_3/sw_allocator | Input requests = [ 1 -> [ 11@0 ]  2 -> [ 15@0 ]  4 -> [ 13@0 ]  5 -> [ 12@0 ]  ], output requests = [ 11 -> [ 1@0 ]  12 -> [ 5@0 ]  13 -> [ 4@0 ]  15 -> [ 2@0 ]  ].
7 | network_0/router_level2_3/sw_allocator | Input grants = [ 1 -> 11  2 -> 15  4 -> 13  5 -> 12  ], output grants = [ 11 -> 1  12 -> 5  13 -> 4  15 -> 2  ].
7 | network_0/router_level2_3 | Assigning output 11.0 to VC 0 at input 1.0.
7 | network_0/router_level2_3 | Completed switch allocation for VC 0 at input 1 (front: 8).
7 | network_0/router_level2_3 |   Scheduling switch connection from input 1.0 to output 11.0.
7 | network_0/router_level2_3 | Updating lookahead routing information for flit 8.
7 | network_0/router_level2_4 | Beginning switch allocation for VC 0 at input 0 (front: 6).
7 | network_0/router_level2_4 |   Requesting output 14.0 (non-spec, pri: 0).
7 | network_0/router_level2_4/sw_allocator | Input requests = [ 0 -> [ 14@0 ]  1 -> [ 15@0 ]  2 -> [ 11@0 ]  3 -> [ 10@0 ]  4 -> [ 9@0 ]  6 -> [ 8@0 ]  ], output requests = [ 8 -> [ 6@0 ]  9 -> [ 4@0 ]  10 -> [ 3@0 ]  11 -> [ 2@0 ]  14 -> [ 0@0 ]  15 -> [ 1@0 ]  ].
7 | network_0/router_level2_4/sw_allocator | Input grants = [ 0 -> 14  1 -> 15  2 -> 11  3 -> 10  4 -> 9  6 -> 8  ], output grants = [ 8 -> 6  9 -> 4  10 -> 3  11 -> 2  14 -> 0  15 -> 1  ].
7 | network_0/router_level2_4 | Assigning output 14.0 to VC 0 at input 0.0.
7 | network_0/router_level2_4 | Completed switch allocation for VC 0 at input 0 (front: 6).
7 | network_0/router_level2_4 |   Scheduling switch connection from input 0.0 to output 14.0.
7 | network_0/router_level2_4 | Updating lookahead routing information for flit 6.
7 | network_0/router_level2_7 | Beginning switch allocation for VC 0 at input 0 (front: 4).
7 | network_0/router_level2_7 |   Requesting output 15.0 (non-spec, pri: 0).
7 | network_0/router_level2_7 | Beginning switch allocation for VC 0 at input 1 (front: 9).
7 | network_0/router_level2_7 |   Requesting output 12.0 (non-spec, pri: 0).
7 | network_0/router_level2_7/sw_allocator | Input requests = [ 0 -> [ 15@0 ]  1 -> [ 12@0 ]  3 -> [ 14@0 ]  ], output requests = [ 12 -> [ 1@0 ]  14 -> [ 3@0 ]  15 -> [ 0@0 ]  ].
7 | network_0/router_level2_7/sw_allocator | Input grants = [ 0 -> 15  1 -> 12  3 -> 14  ], output grants = [ 12 -> 1  14 -> 3  15 -> 0  ].
7 | network_0/router_level2_7 | Assigning output 15.0 to VC 0 at input 0.0.
7 | network_0/router_level2_7 | Assigning output 12.0 to VC 0 at input 1.0.
7 | network_0/router_level2_7 | Completed switch allocation for VC 0 at input 0 (front: 4).
7 | network_0/router_level2_7 |   Scheduling switch connection from input 0.0 to output 15.0.
7 | network_0/router_level2_7 | Updating lookahead routing information for flit 4.
7 | network_0/router_level2_7 | Completed switch allocation for VC 0 at input 1 (front: 9).
7 | network_0/router_level2_7 |   Scheduling switch connection from input 1.0 to output 12.0.
7 | network_0/router_level2_7 | Updating lookahead routing information for flit 9.
7 | network_0/router_level3_0 | Beginning VC allocation for VC 0 at input 7 (front: 7).
7 | network_0/router_level3_0 |   VC 0 at output 8 is in use by VC 0 at input 5 (front flit: 16389).
7 | network_0/router_level3_0 |   Requesting VC 1 at output 8 (in_pri: 0, out_pri: 0).
7 | network_0/router_level3_0 |   Requesting VC 2 at output 8 (in_pri: 0, out_pri: 0).
7 | network_0/router_level3_0 |   Requesting VC 3 at output 8 (in_pri: 0, out_pri: 0).
7 | network_0/router_level3_0/vc_allocator | Input requests = [ 0 -> [ 56@0 58@0 59@0 ]  1 -> [ 37@0 39@0 ]  4 -> [ 52@0 54@0 55@0 ]  5 -> [ 60@0 61@0 62@0 63@0 ]  7 -> [ 52@0 54@0 55@0 ]  9 -> [ 44@0 45@0 46@0 47@0 ]  11 -> [ 52@0 54@0 55@0 ]  19 -> [ 52@0 54@0 55@0 ]  21 -> [ 44@0 45@0 46@0 47@0 ]  22 -> [ 33@0 34@0 35@0 ]  24 -> [ 52@0 54@0 55@0 ]  25 -> [ 52@0 54@0 55@0 ]  26 -> [ 56@0 58@0 59@0 ]  28 -> [ 33@0 34@0 35@0 ]  29 -> [ 48@0 50@0 51@0 ]  31 -> [ 56@0 58@0 59@0 ]  ], output requests = [ 33 -> [ 22@0 28@0 ]  34 -> [ 22@0 28@0 ]  35 -> [ 22@0 28@0 ]  37 -> [ 1@0 ]  39 -> [ 1@0 ]  44 -> [ 9@0 21@0 ]  45 -> [ 9@0 21@0 ]  46 -> [ 9@0 21@0 ]  47 -> [ 9@0 21@0 ]  48 -> [ 29@0 ]  50 -> [ 29@0 ]  51 -> [ 29@0 ]  52 -> [ 4@0 7@0 11@0 19@0 24@0 25@0 ]  54 -> [ 4@0 7@0 11@0 19@0 24@0 25@0 ]  55 -> [ 4@0 7@0 11@0 19@0 24@0 25@0 ]  56 -> [ 0@0 26@0 31@0 ]  58 -> [ 0@0 26@0 31@0 ]  59 -> [ 0@0 26@0 31@0 ]  60 -> [ 5@0 ]  61 -> [ 5@0 ]  62 -> [ 5@0 ]  63 -> [ 5@0 ]  ].
7 | network_0/router_level3_0/vc_allocator | Input grants = [ 1 -> 37  5 -> 60  9 -> 44  22 -> 33  24 -> 52  25 -> 54  26 -> 56  29 -> 48  ], output grants = [ 33 -> 22  37 -> 1  44 -> 9  48 -> 29  52 -> 24  54 -> 25  56 -> 26  60 -> 5  ].
7 | network_0/router_level3_0 | VC allocation failed for VC 0 at input 7.
7 | network_0/router_level3_0 | Completed VC allocation for VC 0 at input 7 (front: 7).
7 | network_0/router_level3_0 |   No output VC allocated.
7 | network_0/network_0_fchan_20481 | Completed channel traversal for flit 5.
8 | network_0/router_level2_1 | Received flit 5 from channel at input 0.
8 | network_0/router_level2_1 | Adding flit 5 to VC 0 at input 0 (state: idle, empty).
8 | network_0/router_level2_1 | Using precomputed lookahead routing information for VC 0 at input 0 (front: 5).
8 | network_0/router_level2_1/buf_0/vc_0 | Changing state from idle to vc_alloc.
8 | network_0/router_level2_1 | Beginning VC allocation for VC 0 at input 0 (front: 5).
8 | network_0/router_level2_1 |   Requesting VC 0 at output 13 (in_pri: 0, out_pri: 0).
8 | network_0/router_level2_1 |   Requesting VC 1 at output 13 (in_pri: 0, out_pri: 0).
8 | network_0/router_level2_1 |   Requesting VC 2 at output 13 (in_pri: 0, out_pri: 0).
8 | network_0/router_level2_1 |   Requesting VC 3 at output 13 (in_pri: 0, out_pri: 0).
8 | network_0/router_level2_1/vc_allocator | Input requests = [ 0 -> [ 52@0 53@0 54@0 55@0 ]  4 -> [ 60@0 61@0 62@0 63@0 ]  8 -> [ 49@0 50@0 51@0 ]  12 -> [ 56@0 58@0 59@0 ]  13 -> [ 52@0 53@0 54@0 55@0 ]  17 -> [ 40@0 42@0 43@0 ]  21 -> [ 49@0 50@0 51@0 ]  24 -> [ 40@0 42@0 43@0 ]  25 -> [ 40@0 42@0 43@0 ]  28 -> [ 56@0 58@0 59@0 ]  ], output requests = [ 40 -> [ 17@0 24@0 25@0 ]  42 -> [ 17@0 24@0 25@0 ]  43 -> [ 17@0 24@0 25@0 ]  49 -> [ 8@0 21@0 ]  50 -> [ 8@0 21@0 ]  51 -> [ 8@0 21@0 ]  52 -> [ 0@0 13@0 ]  53 -> [ 0@0 13@0 ]  54 -> [ 0@0 13@0 ]  55 -> [ 0@0 13@0 ]  56 -> [ 12@0 28@0 ]  58 -> [ 12@0 28@0 ]  59 -> [ 12@0 28@0 ]  60 -> [ 4@0 ]  61 -> [ 4@0 ]  62 -> [ 4@0 ]  63 -> [ 4@0 ]  ].
8 | network_0/router_level2_1/vc_allocator | Input grants = [ 0 -> 53  4 -> 60  8 -> 49  12 -> 56  13 -> 52  17 -> 40  ], output grants = [ 40 -> 17  49 -> 8  52 -> 13  53 -> 0  56 -> 12  60 -> 4  ].
8 | network_0/router_level2_1 | Assigning VC 1 at output 13 to VC 0 at input 0.
8 | network_0/router_level2_1 | Beginning switch allocation for VC 1 at input 0 (front: 3).
8 | network_0/router_level2_1 |   Requesting output 9.0 (non-spec, pri: 0).
8 | network_0/router_level2_1/sw_allocator | Input requests = [ 0 -> [ 9@0 ]  1 -> [ 12@0 ]  2 -> [ 14@0 ]  4 -> [ 11@0 ]  5 -> [ 10@0 ]  ], output requests = [ 9 -> [ 0@0 ]  10 -> [ 5@0 ]  11 -> [ 4@0 ]  12 -> [ 1@0 ]  14 -> [ 2@0 ]  ].
8 | network_0/router_level2_1/sw_allocator | Input grants = [ 0 -> 9  1 -> 12  2 -> 14  4 -> 11  5 -> 10  ], output grants = [ 9 -> 0  10 -> 5  11 -> 4  12 -> 1  14 -> 2  ].
8 | network_0/router_level2_1 | Assigning output 9.0 to VC 1 at input 0.0.
8 | network_0/router_level2_1 | Beginning crossbar traversal for flit 2 from input 0.0 to output 13.0.
8 | network_0/router_level2_1 | Beginning crossbar traversal for flit 10 from input 1.0 to output 14.0.
8 | network_0/router_level2_1 | Completed VC allocation for VC 0 at input 0 (front: 5).
8 | network_0/router_level2_1 |   Acquiring assigned VC 1 at output 13.
8 | network_0/router_level2_1/buf_0/vc_0 | Changing state from vc_alloc to active.
8 | network_0/router_level2_1 | Completed switch allocation for VC 1 at input 0 (front: 3).
8 | network_0/router_level2_1 |   Scheduling switch connection from input 0.0 to output 9.0.
8 | network_0/router_level2_1 | Updating lookahead routing information for flit 3.
8 | network_0/router_level2_1 | Completed crossbar traversal for flit 2 from input 0.0 to output 13.0.
8 | network_0/router_level2_1 | Buffering flit 2 at output 13.
8 | network_0/router_level2_1 | Completed crossbar traversal for flit 10 from input 1.0 to output 14.0.
8 | network_0/router_level2_1 | Buffering flit 10 at output 14.
8 | network_0/router_level2_2 | Beginning crossbar traversal for flit 1 from input 0.0 to output 13.0.
8 | network_0/router_level2_2 | Completed crossbar traversal for flit 1 from input 0.0 to output 13.0.
8 | network_0/router_level2_2 | Buffering flit 1 at output 13.
8 | network_0/router_level2_3 | Beginning crossbar traversal for flit 8 from input 1.0 to output 11.0.
8 | network_0/router_level2_3 | Completed crossbar traversal for flit 8 from input 1.0 to output 11.0.
8 | network_0/router_level2_3 | Buffering flit 8 at output 11.
8 | network_0/router_level2_4 | Beginning crossbar traversal for flit 6 from input 0.0 to output 14.0.
8 | network_0/router_level2_4 | Completed crossbar traversal for flit 6 from input 0.0 to output 14.0.
8 | network_0/router_level2_4 | Buffering flit 6 at output 14.
8 | network_0/router_level2_7 | Beginning crossbar traversal for flit 4 from input 0.0 to output 15.0.
8 | network_0/router_level2_7 | Beginning crossbar traversal for flit 9 from input 1.0 to output 12.0.
8 | network_0/router_level2_7 | Completed crossbar traversal for flit 4 from input 0.0 to output 15.0.
8 | network_0/router_level2_7 | Buffering flit 4 at output 15.
8 | network_0/router_level2_7 | Completed crossbar traversal for flit 9 from input 1.0 to output 12.0.
8 | network_0/router_level2_7 | Buffering flit 9 at output 12.
8 | network_0/router_level3_0 | Beginning VC allocation for VC 0 at input 7 (front: 7).
8 | network_0/router_level3_0 |   Requesting VC 0 at output 8 (in_pri: 0, out_pri: 0).
8 | network_0/router_level3_0 |   VC 1 at output 8 is in use by VC 2 at input 5 (front flit: 8197).
8 | network_0/router_level3_0 |   Requesting VC 2 at output 8 (in_pri: 0, out_pri: 0).
8 | network_0/router_level3_0 |   Requesting VC 3 at output 8 (in_pri: 0, out_pri: 0).
8 | network_0/router_level3_0/vc_allocator | Input requests = [ 0 -> [ 58@0 59@0 ]  2 -> [ 61@0 62@0 63@0 ]  4 -> [ 53@0 55@0 ]  6 -> [ 61@0 62@0 63@0 ]  7 -> [ 53@0 55@0 ]  10 -> [ 61@0 62@0 63@0 ]  11 -> [ 53@0 55@0 ]  14 -> [ 36@0 39@0 ]  18 -> [ 53@0 55@0 ]  19 -> [ 53@0 55@0 ]  21 -> [ 45@0 46@0 47@0 ]  28 -> [ 32@0 34@0 35@0 ]  30 -> [ 50@0 51@0 ]  31 -> [ 58@0 59@0 ]  ], output requests = [ 32 -> [ 28@0 ]  34 -> [ 28@0 ]  35 -> [ 28@0 ]  36 -> [ 14@0 ]  39 -> [ 14@0 ]  45 -> [ 21@0 ]  46 -> [ 21@0 ]  47 -> [ 21@0 ]  50 -> [ 30@0 ]  51 -> [ 30@0 ]  53 -> [ 4@0 7@0 11@0 18@0 19@0 ]  55 -> [ 4@0 7@0 11@0 18@0 19@0 ]  58 -> [ 0@0 31@0 ]  59 -> [ 0@0 31@0 ]  61 -> [ 2@0 6@0 10@0 ]  62 -> [ 2@0 6@0 10@0 ]  63 -> [ 2@0 6@0 10@0 ]  ].
8 | network_0/router_level3_0/vc_allocator | Input grants = [ 0 -> 58  2 -> 61  4 -> 53  14 -> 36  21 -> 45  28 -> 32  30 -> 50  ], output grants = [ 32 -> 28  36 -> 14  45 -> 21  50 -> 30  53 -> 4  58 -> 0  61 -> 2  ].
8 | network_0/router_level3_0 | Assigning VC 0 at output 8 to VC 0 at input 7.
8 | network_0/router_level3_0 | Completed VC allocation for VC 0 at input 7 (front: 7).
8 | network_0/router_level3_0 |   Acquiring assigned VC 0 at output 8.
8 | network_0/router_level3_0/buf_7/vc_0 | Changing state from vc_alloc to active.
8 | network_0/router_level2_1 | Sending flit 2 to channel at output 13.
8 | network_0/router_level2_1 | Sending flit 10 to channel at output 14.
8 | network_0/router_level2_2 | Sending flit 1 to channel at output 13.
8 | network_0/router_level2_3 | Sending flit 8 to channel at output 11.
8 | network_0/router_level2_4 | Sending flit 6 to channel at output 14.
8 | network_0/router_level2_7 | Sending flit 9 to channel at output 12.
8 | network_0/router_level2_7 | Sending flit 4 to channel at output 15.
9 | network_0/network_0_fchan_12301 | Beginning channel traversal for flit 2 with delay 1.
9 | network_0/network_0_fchan_12302 | Beginning channel traversal for flit 10 with delay 1.
9 | network_0/network_0_fchan_12309 | Beginning channel traversal for flit 1 with delay 1.
9 | network_0/network_0_fchan_12315 | Beginning channel traversal for flit 8 with delay 1.
9 | network_0/network_0_fchan_12326 | Beginning channel traversal for flit 6 with delay 1.
9 | network_0/network_0_fchan_12348 | Beginning channel traversal for flit 9 with delay 1.
9 | network_0/network_0_fchan_12351 | Beginning channel traversal for flit 4 with delay 1.
9 | network_0/router_level2_1 | Beginning switch allocation for VC 0 at input 0 (front: 5).
9 | network_0/router_level2_1 |   Requesting output 13.0 (non-spec, pri: 0).
9 | network_0/router_level2_1/sw_allocator | Input requests = [ 0 -> [ 13@0 ]  1 -> [ 15@0 ]  2 -> [ 12@0 ]  3 -> [ 13@0 14@0 ]  4 -> [ 10@0 ]  ], output requests = [ 10 -> [ 4@0 ]  12 -> [ 2@0 ]  13 -> [ 0@0 3@0 ]  14 -> [ 3@0 ]  15 -> [ 1@0 ]  ].
9 | network_0/router_level2_1/sw_allocator | Input grants = [ 1 -> 15  2 -> 12  3 -> 13  4 -> 10  ], output grants = [ 10 -> 4  12 -> 2  13 -> 3  15 -> 1  ].
9 | network_0/router_level2_1 | Switch allocation failed for VC 0 at input 0: No output granted.
9 | network_0/router_level2_1 | Beginning crossbar traversal for flit 3 from input 0.0 to output 9.0.
9 | network_0/router_level2_1 | Completed switch allocation for VC 0 at input 0 (front: 5).
9 | network_0/router_level2_1 |   No output port allocated.
9 | network_0/router_level2_1 | Completed crossbar traversal for flit 3 from input 0.0 to output 9.0.
9 | network_0/router_level2_1 | Buffering flit 3 at output 9.
9 | network_0/router_level3_0 | Beginning switch allocation for VC 0 at input 7 (front: 7).
9 | network_0/router_level3_0 |   Requesting output 8.0 (non-spec, pri: 0).
9 | network_0/router_level3_0/sw_allocator | Input requests = [ 0 -> [ 14@0 15@0 ]  1 -> [ 13@0 ]  2 -> [ 9@0 11@0 ]  3 -> [ 9@0 ]  5 -> [ 11@0 ]  6 -> [ 13@0 14@0 ]  7 -> [ 8@0 12@0 ]  ], output requests = [ 8 -> [ 7@0 ]  9 -> [ 2@0 3@0 ]  11 -> [ 2@0 5@0 ]  12 -> [ 7@0 ]  13 -> [ 1@0 6@0 ]  14 -> [ 0@0 6@0 ]  15 -> [ 0@0 ]  ].
9 | network_0/router_level3_0/sw_allocator | Input grants = [ 1 -> 13  2 -> 9  5 -> 11  6 -> 14  7 -> 8  ], output grants = [ 8 -> 7  9 -> 2  11 -> 5  13 -> 1  14 -> 6  ].
9 | network_0/router_level3_0 | Assigning output 8.0 to VC 0 at input 7.0.
9 | network_0/router_level3_0 | Completed switch allocation for VC 0 at input 7 (front: 7).
9 | network_0/router_level3_0 |   Scheduling switch connection from input 7.0 to output 8.0.
9 | network_0/router_level3_0 | Updating lookahead routing information for flit 7.
9 | network_0/network_0_fchan_12301 | Completed channel traversal for flit 2.
9 | network_0/network_0_fchan_12302 | Completed channel traversal for flit 10.
9 | network_0/network_0_fchan_12309 | Completed channel traversal for flit 1.
9 | network_0/network_0_fchan_12315 | Completed channel traversal for flit 8.
9 | network_0/network_0_fchan_12326 | Completed channel traversal for flit 6.
9 | network_0/network_0_fchan_12348 | Completed channel traversal for flit 9.
9 | network_0/network_0_fchan_12351 | Completed channel traversal for flit 4.
9 | network_0/router_level2_1 | Sending flit 3 to channel at output 9.
10 | network_0/network_0_fchan_12297 | Beginning channel traversal for flit 3 with delay 1.
10 | network_0/router_level1_27 | Received flit 8 from channel at input 0.
10 | network_0/router_level1_39 | Received flit 9 from channel at input 0.
10 | network_0/router_level1_41 | Received flit 2 from channel at input 0.
10 | network_0/router_level1_42 | Received flit 1 from channel at input 0.
10 | network_0/router_level1_49 | Received flit 10 from channel at input 0.
10 | network_0/router_level1_52 | Received flit 6 from channel at input 0.
10 | network_0/router_level1_63 | Received flit 4 from channel at input 0.
10 | network_0/router_level1_27 | Adding flit 8 to VC 0 at input 0 (state: idle, empty).
10 | network_0/router_level1_27 | Using precomputed lookahead routing information for VC 0 at input 0 (front: 8).
10 | network_0/router_level1_27/buf_0/vc_0 | Changing state from idle to vc_alloc.
10 | network_0/router_level1_27 | Beginning VC allocation for VC 0 at input 0 (front: 8).
10 | network_0/router_level1_27 |   Requesting VC 0 at output 8 (in_pri: 0, out_pri: 0).
10 | network_0/router_level1_27 |   Requesting VC 1 at output 8 (in_pri: 0, out_pri: 0).
10 | network_0/router_level1_27 |   Requesting VC 2 at output 8 (in_pri: 0, out_pri: 0).
10 | network_0/router_level1_27 |   Requesting VC 3 at output 8 (in_pri: 0, out_pri: 0).
10 | network_0/router_level1_27/vc_allocator | Input requests = [ 0 -> [ 32@0 33@0 34@0 35@0 ]  4 -> [ 36@0 37@0 38@0 39@0 ]  8 -> [ 36@0 37@0 38@0 39@0 ]  12 -> [ 40@0 41@0 42@0 43@0 ]  16 -> [ 32@0 33@0 34@0 35@0 ]  24 -> [ 36@0 37@0 38@0 39@0 ]  ], output requests = [ 32 -> [ 0@0 16@0 ]  33 -> [ 0@0 16@0 ]  34 -> [ 0@0 16@0 ]  35 -> [ 0@0 16@0 ]  36 -> [ 4@0 8@0 24@0 ]  37 -> [ 4@0 8@0 24@0 ]  38 -> [ 4@0 8@0 24@0 ]  39 -> [ 4@0 8@0 24@0 ]  40 -> [ 12@0 ]  41 -> [ 12@0 ]  42 -> [ 12@0 ]  43 -> [ 12@0 ]  ].
10 | network_0/router_level1_27/vc_allocator | Input grants = [ 0 -> 32  4 -> 36  12 -> 40  ], output grants = [ 32 -> 0  36 -> 4  40 -> 12  ].
10 | network_0/router_level1_27 | Assigning VC 0 at output 8 to VC 0 at input 0.
10 | network_0/router_level1_27 | Completed VC allocation for VC 0 at input 0 (front: 8).
10 | network_0/router_level1_27 |   Acquiring assigned VC 0 at output 8.
10 | network_0/router_level1_27/buf_0/vc_0 | Changing state from vc_alloc to active.
10 | network_0/router_level1_39 | Adding flit 9 to VC 0 at input 0 (state: idle, empty).
10 | network_0/router_level1_39 | Using precomputed lookahead routing information for VC 0 at input 0 (front: 9).
10 | network_0/router_level1_39/buf_0/vc_0 | Changing state from idle to vc_alloc.
10 | network_0/router_level1_39 | Beginning VC allocation for VC 0 at input 0 (front: 9).
10 | network_0/router_level1_39 |   Requesting VC 0 at output 9 (in_pri: 0, out_pri: 0).
10 | network_0/router_level1_39 |   Requesting VC 1 at output 9 (in_pri: 0, out_pri: 0).
10 | network_0/router_level1_39 |   Requesting VC 2 at output 9 (in_pri: 0, out_pri: 0).
10 | network_0/router_level1_39 |   Requesting VC 3 at output 9 (in_pri: 0, out_pri: 0).
10 | network_0/router_level1_39/vc_allocator | Input requests = [ 0 -> [ 36@0 37@0 38@0 39@0 ]  4 -> [ 40@0 41@0 42@0 43@0 ]  12 -> [ 44@0 45@0 46@0 47@0 ]  16 -> [ 32@0 33@0 34@0 35@0 ]  24 -> [ 36@0 37@0 38@0 39@0 ]  28 -> [ 40@0 41@0 42@0 43@0 ]  ], output requests = [ 32 -> [ 16@0 ]  33 -> [ 16@0 ]  34 -> [ 16@0 ]  35 -> [ 16@0 ]  36 -> [ 0@0 24@0 ]  37 -> [ 0@0 24@0 ]  38 -> [ 0@0 24@0 ]  39 -> [ 0@0 24@0 ]  40 -> [ 4@0 28@0 ]  41 -> [ 4@0 28@0 ]  42 -> [ 4@0 28@0 ]  43 -> [ 4@0 28@0 ]  44 -> [ 12@0 ]  45 -> [ 12@0 ]  46 -> [ 12@0 ]  47 -> [ 12@0 ]  ].
10 | network_0/router_level1_39/vc_allocator | Input grants = [ 0 -> 36  4 -> 40  12 -> 44  16 -> 32  ], output grants = [ 32 -> 16  36 -> 0  40 -> 4  44 -> 12  ].
10 | network_0/router_level1_39 | Assigning VC 0 at output 9 to VC 0 at input 0.
10 | network_0/router_level1_39 | Completed VC allocation for VC 0 at input 0 (front: 9).
10 | network_0/router_level1_39 |   Acquiring assigned VC 0 at output 9.
10 | network_0/router_level1_39/buf_0/vc_0 | Changing state from vc_alloc to active.
10 | network_0/router_level1_41 | Adding flit 2 to VC 0 at input 0 (state: idle, empty).
10 | network_0/router_level1_41 | Using precomputed lookahead routing information for VC 0 at input 0 (front: 2).
10 | network_0/router_level1_41/buf_0/vc_0 | Changing state from idle to vc_alloc.
10 | network_0/router_level1_41 | Beginning VC allocation for VC 0 at input 0 (front: 2).
10 | network_0/router_level1_41 |   Requesting VC 0 at output 9 (in_pri: 0, out_pri: 0).
10 | network_0/router_level1_41 |   Requesting VC 1 at output 9 (in_pri: 0, out_pri: 0).
10 | network_0/router_level1_41 |   Requesting VC 2 at output 9 (in_pri: 0, out_pri: 0).
10 | network_0/router_level1_41 |   Requesting VC 3 at output 9 (in_pri: 0, out_pri: 0).
10 | network_0/router_level1_41/vc_allocator | Input requests = [ 0 -> [ 36@0 37@0 38@0 39@0 ]  4 -> [ 36@0 37@0 38@0 39@0 ]  16 -> [ 36@0 37@0 38@0 39@0 ]  20 -> [ 44@0 45@0 46@0 47@0 ]  28 -> [ 44@0 45@0 46@0 47@0 ]  ], output requests = [ 36 -> [ 0@0 4@0 16@0 ]  37 -> [ 0@0 4@0 16@0 ]  38 -> [ 0@0 4@0 16@0 ]  39 -> [ 0@0 4@0 16@0 ]  44 -> [ 20@0 28@0 ]  45 -> [ 20@0 28@0 ]  46 -> [ 20@0 28@0 ]  47 -> [ 20@0 28@0 ]  ].
10 | network_0/router_level1_41/vc_allocator | Input grants = [ 0 -> 36  20 -> 44  ], output grants = [ 36 -> 0  44 -> 20  ].
10 | network_0/router_level1_41 | Assigning VC 0 at output 9 to VC 0 at input 0.
10 | network_0/router_level1_41 | Completed VC allocation for VC 0 at input 0 (front: 2).
10 | network_0/router_level1_41 |   Acquiring assigned VC 0 at output 9.
10 | network_0/router_level1_41/buf_0/vc_0 | Changing state from vc_alloc to active.
10 | network_0/router_level1_42 | Adding flit 1 to VC 0 at input 0 (state: idle, empty).
10 | network_0/router_level1_42 | Using precomputed lookahead routing information for VC 0 at input 0 (front: 1).
10 | network_0/router_level1_42/buf_0/vc_0 | Changing state from idle to vc_alloc.
10 | network_0/router_level1_42 | Beginning VC allocation for VC 0 at input 0 (front: 1).
10 | network_0/router_level1_42 |   Requesting VC 0 at output 8 (in_pri: 0, out_pri: 0).
10 | network_0/router_level1_42 |   Requesting VC 1 at output 8 (in_pri: 0, out_pri: 0).
10 | network_0/router_level1_42 |   Requesting VC 2 at output 8 (in_pri: 0, out_pri: 0).
10 | network_0/router_level1_42 |   Requesting VC 3 at output 8 (in_pri: 0, out_pri: 0).
10 | network_0/router_level1_42/vc_allocator | Input requests = [ 0 -> [ 32@0 33@0 34@0 35@0 ]  4 -> [ 40@0 41@0 42@0 43@0 ]  20 -> [ 36@0 37@0 38@0 39@0 ]  ], output requests = [ 32 -> [ 0@0 ]  33 -> [ 0@0 ]  34 -> [ 0@0 ]  35 -> [ 0@0 ]  36 -> [ 20@0 ]  37 -> [ 20@0 ]  38 -> [ 20@0 ]  39 -> [ 20@0 ]  40 -> [ 4@0 ]  41 -> [ 4@0 ]  42 -> [ 4@0 ]  43 -> [ 4@0 ]  ].
10 | network_0/router_level1_42/vc_allocator | Input grants = [ 0 -> 32  4 -> 40  20 -> 36  ], output grants = [ 32 -> 0  36 -> 20  40 -> 4  ].
10 | network_0/router_level1_42 | Assigning VC 0 at output 8 to VC 0 at input 0.
10 | network_0/router_level1_42 | Completed VC allocation for VC 0 at input 0 (front: 1).
10 | network_0/router_level1_42 |   Acquiring assigned VC 0 at output 8.
10 | network_0/router_level1_42/buf_0/vc_0 | Changing state from vc_alloc to active.
10 | network_0/router_level1_49 | Adding flit 10 to VC 0 at input 0 (state: idle, empty).
10 | network_0/router_level1_49 | Using precomputed lookahead routing information for VC 0 at input 0 (front: 10).
10 | network_0/router_level1_49/buf_0/vc_0 | Changing state from idle to vc_alloc.
10 | network_0/router_level1_49 | Beginning VC allocation for VC 0 at input 0 (front: 10).
10 | network_0/router_level1_49 |   Requesting VC 0 at output 8 (in_pri: 0, out_pri: 0).
10 | network_0/router_level1_49 |   Requesting VC 1 at output 8 (in_pri: 0, out_pri: 0).
10 | network_0/router_level1_49 |   Requesting VC 2 at output 8 (in_pri: 0, out_pri: 0).
10 | network_0/router_level1_49 |   Requesting VC 3 at output 8 (in_pri: 0, out_pri: 0).
10 | network_0/router_level1_49/vc_allocator | Input requests = [ 0 -> [ 32@0 33@0 34@0 35@0 ]  12 -> [ 32@0 33@0 34@0 35@0 ]  16 -> [ 32@0 33@0 34@0 35@0 ]  20 -> [ 36@0 37@0 38@0 39@0 ]  ], output requests = [ 32 -> [ 0@0 12@0 16@0 ]  33 -> [ 0@0 12@0 16@0 ]  34 -> [ 0@0 12@0 16@0 ]  35 -> [ 0@0 12@0 16@0 ]  36 -> [ 20@0 ]  37 -> [ 20@0 ]  38 -> [ 20@0 ]  39 -> [ 20@0 ]  ].
10 | network_0/router_level1_49/vc_allocator | Input grants = [ 0 -> 32  20 -> 36  ], output grants = [ 32 -> 0  36 -> 20  ].
10 | network_0/router_level1_49 | Assigning VC 0 at output 8 to VC 0 at input 0.
10 | network_0/router_level1_49 | Completed VC allocation for VC 0 at input 0 (front: 10).
10 | network_0/router_level1_49 |   Acquiring assigned VC 0 at output 8.
10 | network_0/router_level1_49/buf_0/vc_0 | Changing state from vc_alloc to active.
10 | network_0/router_level1_52 | Adding flit 6 to VC 0 at input 0 (state: idle, empty).
[...]
42 | network_0/router_level0_80 | Assigning VC 3 at output 7 to VC 0 at input 0.
42 | network_0/router_level0_80 | Completed VC allocation for VC 0 at input 0 (front: 7).
42 | network_0/router_level0_80 |   Acquiring assigned VC 3 at output 7.
42 | network_0/router_level0_80/buf_0/vc_0 | Changing state from vc_alloc to active.
43 | network_0/router_level0_80 | Beginning switch allocation for VC 0 at input 0 (front: 7).
43 | network_0/router_level0_80 |   Requesting output 7.0 (non-spec, pri: 0).
43 | network_0/router_level0_80/sw_allocator | Input requests = [ 0 -> [ 7@0 ]  1 -> [ 6@0 ]  3 -> [ 4@0 ]  4 -> [ 3@0 ]  5 -> [ 2@0 ]  6 -> [ 1@0 ]  7 -> [ 0@0 ]  ], output requests = [ 0 -> [ 7@0 ]  1 -> [ 6@0 ]  2 -> [ 5@0 ]  3 -> [ 4@0 ]  4 -> [ 3@0 ]  6 -> [ 1@0 ]  7 -> [ 0@0 ]  ].
43 | network_0/router_level0_80/sw_allocator | Input grants = [ 0 -> 7  1 -> 6  3 -> 4  4 -> 3  5 -> 2  6 -> 1  7 -> 0  ], output grants = [ 0 -> 7  1 -> 6  2 -> 5  3 -> 4  4 -> 3  6 -> 1  7 -> 0  ].
43 | network_0/router_level0_80 | Assigning output 7.0 to VC 0 at input 0.0.
43 | network_0/router_level0_80 | Completed switch allocation for VC 0 at input 0 (front: 7).
43 | network_0/router_level0_80 |   Scheduling switch connection from input 0.0 to output 7.0.
43 | network_0/router_level0_80 | Updating lookahead routing information for flit 7.
44 | network_0/router_level0_80 | Beginning crossbar traversal for flit 7 from input 0.0 to output 7.0.
44 | network_0/router_level0_80 | Completed crossbar traversal for flit 7 from input 0.0 to output 7.0.
44 | network_0/router_level0_80 | Buffering flit 7 at output 7.
44 | network_0/router_level0_80 | Sending flit 7 to channel at output 7.
45 | network_0/network_0_fchan_647 | Beginning channel traversal for flit 7 with delay 1.
45 | network_0/network_0_fchan_647 | Completed channel traversal for flit 7.
46 | network_0/router_level1_464 | Received flit 7 from channel at input 9.
46 | network_0/router_level1_464 | Adding flit 7 to VC 3 at input 9 (state: idle, empty).
46 | network_0/router_level1_464 | Using precomputed lookahead routing information for VC 3 at input 9 (front: 7).
46 | network_0/router_level1_464/buf_9/vc_3 | Changing state from idle to vc_alloc.
46 | network_0/router_level1_464 | Beginning VC allocation for VC 3 at input 9 (front: 7).
46 | network_0/router_level1_464 |   Requesting VC 0 at output 7 (in_pri: 0, out_pri: 0).
46 | network_0/router_level1_464 |   Requesting VC 1 at output 7 (in_pri: 0, out_pri: 0).
46 | network_0/router_level1_464 |   Requesting VC 2 at output 7 (in_pri: 0, out_pri: 0).
46 | network_0/router_level1_464 |   Requesting VC 3 at output 7 (in_pri: 0, out_pri: 0).
46 | network_0/router_level1_464/vc_allocator | Input requests = [ 1 -> [ 46@0 ]  4 -> [ 35@0 ]  6 -> [ 40@0 ]  8 -> [ 38@0 ]  10 -> [ 38@0 ]  12 -> [ 46@0 ]  13 -> [ 38@0 ]  14 -> [ 38@0 ]  17 -> [ 38@0 ]  18 -> [ 46@0 ]  21 -> [ 40@0 ]  24 -> [ 35@0 ]  28 -> [ 46@0 ]  29 -> [ 35@0 ]  30 -> [ 35@0 ]  34 -> [ 21@0 22@0 23@0 ]  39 -> [ 28@0 29@0 30@0 31@0 ]  40 -> [ 8@0 9@0 10@0 11@0 ]  44 -> [ 12@0 13@0 14@0 15@0 ]  ], output requests = [ 8 -> [ 40@0 ]  9 -> [ 40@0 ]  10 -> [ 40@0 ]  11 -> [ 40@0 ]  12 -> [ 44@0 ]  13 -> [ 44@0 ]  14 -> [ 44@0 ]  15 -> [ 44@0 ]  21 -> [ 34@0 ]  22 -> [ 34@0 ]  23 -> [ 34@0 ]  28 -> [ 39@0 ]  29 -> [ 39@0 ]  30 -> [ 39@0 ]  31 -> [ 39@0 ]  35 -> [ 4@0 24@0 29@0 30@0 ]  38 -> [ 8@0 10@0 13@0 14@0 17@0 ]  40 -> [ 6@0 21@0 ]  46 -> [ 1@0 12@0 18@0 28@0 ]  ].
46 | network_0/router_level1_464/vc_allocator | Input grants = [ 6 -> 40  8 -> 38  18 -> 46  24 -> 35  34 -> 21  39 -> 28  40 -> 8  44 -> 12  ], output grants = [ 8 -> 40  12 -> 44  21 -> 34  28 -> 39  35 -> 24  38 -> 8  40 -> 6  46 -> 18  ].
46 | network_0/router_level1_464 | Assigning VC 0 at output 7 to VC 3 at input 9.
46 | network_0/router_level1_464 | Completed VC allocation for VC 3 at input 9 (front: 7).
46 | network_0/router_level1_464 |   Acquiring assigned VC 0 at output 7.
46 | network_0/router_level1_464/buf_9/vc_3 | Changing state from vc_alloc to active.
47 | network_0/router_level1_464 | Beginning switch allocation for VC 3 at input 9 (front: 7).
47 | network_0/router_level1_464 |   Requesting output 7.0 (non-spec, pri: 0).
47 | network_0/router_level1_464/sw_allocator | Input requests = [ 0 -> [ 10@0 ]  1 -> [ 10@0 11@0 ]  2 -> [ 9@0 ]  3 -> [ 9@0 ]  4 -> [ 8@0 11@0 ]  6 -> [ 8@0 11@0 ]  8 -> [ 5@0 ]  9 -> [ 7@0 ]  10 -> [ 2@0 ]  11 -> [ 3@0 ]  ], output requests = [ 2 -> [ 10@0 ]  3 -> [ 11@0 ]  5 -> [ 8@0 ]  7 -> [ 9@0 ]  8 -> [ 4@0 6@0 ]  9 -> [ 2@0 3@0 ]  10 -> [ 0@0 1@0 ]  11 -> [ 1@0 4@0 6@0 ]  ].
47 | network_0/router_level1_464/sw_allocator | Input grants = [ 0 -> 10  3 -> 9  6 -> 11  8 -> 5  9 -> 7  10 -> 2  11 -> 3  ], output grants = [ 2 -> 10  3 -> 11  5 -> 8  7 -> 9  9 -> 3  10 -> 0  11 -> 6  ].
47 | network_0/router_level1_464 | Assigning output 7.0 to VC 3 at input 9.0.
47 | network_0/router_level1_464 | Completed switch allocation for VC 3 at input 9 (front: 7).
47 | network_0/router_level1_464 |   Scheduling switch connection from input 9.0 to output 7.0.
47 | network_0/router_level1_464 | Updating lookahead routing information for flit 7.
48 | network_0/router_level1_464 | Beginning crossbar traversal for flit 7 from input 9.0 to output 7.0.
48 | network_0/router_level1_464 | Completed crossbar traversal for flit 7 from input 9.0 to output 7.0.
48 | network_0/router_level1_464 | Buffering flit 7 at output 7.
48 | network_0/router_level1_464 | Sending flit 7 to channel at output 7.
49 | network_0/network_0_fchan_11911 | Beginning channel traversal for flit 7 with delay 1.
49 | network_0/network_0_fchan_11911 | Completed channel traversal for flit 7.
50 | network_0/router_level2_504 | Received flit 7 from channel at input 10.
50 | network_0/router_level2_504 | Adding flit 7 to VC 0 at input 10 (state: idle, empty).
50 | network_0/router_level2_504 | Using precomputed lookahead routing information for VC 0 at input 10 (front: 7).
50 | network_0/router_level2_504/buf_10/vc_0 | Changing state from idle to vc_alloc.
50 | network_0/router_level2_504 | Beginning VC allocation for VC 0 at input 10 (front: 7).
50 | network_0/router_level2_504 |   Requesting VC 0 at output 7 (in_pri: 0, out_pri: 0).
50 | network_0/router_level2_504 |   Requesting VC 1 at output 7 (in_pri: 0, out_pri: 0).
50 | network_0/router_level2_504 |   Requesting VC 2 at output 7 (in_pri: 0, out_pri: 0).
50 | network_0/router_level2_504 |   Requesting VC 3 at output 7 (in_pri: 0, out_pri: 0).
50 | network_0/router_level2_504/vc_allocator | Input requests = [ 0 -> [ 35@0 ]  13 -> [ 57@0 58@0 59@0 ]  14 -> [ 35@0 ]  24 -> [ 57@0 58@0 59@0 ]  27 -> [ 60@0 62@0 63@0 ]  30 -> [ 35@0 ]  36 -> [ 24@0 25@0 26@0 27@0 ]  40 -> [ 28@0 29@0 30@0 31@0 ]  44 -> [ 0@0 1@0 2@0 3@0 ]  48 -> [ 20@0 21@0 23@0 ]  52 -> [ 20@0 21@0 23@0 ]  56 -> [ 28@0 29@0 30@0 31@0 ]  ], output requests = [ 0 -> [ 44@0 ]  1 -> [ 44@0 ]  2 -> [ 44@0 ]  3 -> [ 44@0 ]  20 -> [ 48@0 52@0 ]  21 -> [ 48@0 52@0 ]  23 -> [ 48@0 52@0 ]  24 -> [ 36@0 ]  25 -> [ 36@0 ]  26 -> [ 36@0 ]  27 -> [ 36@0 ]  28 -> [ 40@0 56@0 ]  29 -> [ 40@0 56@0 ]  30 -> [ 40@0 56@0 ]  31 -> [ 40@0 56@0 ]  35 -> [ 0@0 14@0 30@0 ]  57 -> [ 13@0 24@0 ]  58 -> [ 13@0 24@0 ]  59 -> [ 13@0 24@0 ]  60 -> [ 27@0 ]  62 -> [ 27@0 ]  63 -> [ 27@0 ]  ].
50 | network_0/router_level2_504/vc_allocator | Input grants = [ 13 -> 57  27 -> 60  30 -> 35  36 -> 24  40 -> 28  44 -> 0  48 -> 21  52 -> 20  56 -> 29  ], output grants = [ 0 -> 44  20 -> 52  21 -> 48  24 -> 36  28 -> 40  29 -> 56  35 -> 30  57 -> 13  60 -> 27  ].
50 | network_0/router_level2_504 | Assigning VC 0 at output 7 to VC 0 at input 10.
50 | network_0/router_level2_504 | Completed VC allocation for VC 0 at input 10 (front: 7).
50 | network_0/router_level2_504 |   Acquiring assigned VC 0 at output 7.
50 | network_0/router_level2_504/buf_10/vc_0 | Changing state from vc_alloc to active.
51 | network_0/router_level2_504 | Beginning switch allocation for VC 0 at input 10 (front: 7).
51 | network_0/router_level2_504 |   Requesting output 7.0 (non-spec, pri: 0).
51 | network_0/router_level2_504/sw_allocator | Input requests = [ 0 -> [ 12@0 ]  2 -> [ 8@0 10@0 ]  3 -> [ 14@0 ]  4 -> [ 10@0 ]  5 -> [ 8@0 ]  6 -> [ 13@0 15@0 ]  7 -> [ 8@0 ]  9 -> [ 6@0 ]  10 -> [ 7@0 ]  11 -> [ 0@0 ]  12 -> [ 5@0 ]  13 -> [ 5@0 ]  14 -> [ 7@0 ]  ], output requests = [ 0 -> [ 11@0 ]  5 -> [ 12@0 13@0 ]  6 -> [ 9@0 ]  7 -> [ 10@0 14@0 ]  8 -> [ 2@0 5@0 7@0 ]  10 -> [ 2@0 4@0 ]  12 -> [ 0@0 ]  13 -> [ 6@0 ]  14 -> [ 3@0 ]  15 -> [ 6@0 ]  ].
51 | network_0/router_level2_504/sw_allocator | Input grants = [ 0 -> 12  2 -> 10  3 -> 14  5 -> 8  6 -> 13  9 -> 6  10 -> 7  11 -> 0  12 -> 5  ], output grants = [ 0 -> 11  5 -> 12  6 -> 9  7 -> 10  8 -> 5  10 -> 2  12 -> 0  13 -> 6  14 -> 3  ].
51 | network_0/router_level2_504 | Assigning output 7.0 to VC 0 at input 10.0.
51 | network_0/router_level2_504 | Completed switch allocation for VC 0 at input 10 (front: 7).
51 | network_0/router_level2_504 |   Scheduling switch connection from input 10.0 to output 7.0.
51 | network_0/router_level2_504 | Updating lookahead routing information for flit 7.
52 | network_0/router_level2_504 | Beginning crossbar traversal for flit 7 from input 10.0 to output 7.0.
52 | network_0/router_level2_504 | Completed crossbar traversal for flit 7 from input 10.0 to output 7.0.
52 | network_0/router_level2_504 | Buffering flit 7 at output 7.
52 | network_0/router_level2_504 | Sending flit 7 to channel at output 7.
53 | network_0/network_0_fchan_20423 | Beginning channel traversal for flit 7 with delay 1.
53 | network_0/network_0_fchan_20423 | Completed channel traversal for flit 7.
54 | network_0/router_level3_511 | Received flit 7 from channel at input 8.
54 | network_0/router_level3_511 | Adding flit 7 to VC 0 at input 8 (state: idle, empty).
54 | network_0/router_level3_511 | Using precomputed lookahead routing information for VC 0 at input 8 (front: 7).
54 | network_0/router_level3_511/buf_8/vc_0 | Changing state from idle to vc_alloc.
54 | network_0/router_level3_511 | Beginning VC allocation for VC 0 at input 8 (front: 7).
54 | network_0/router_level3_511 |   Requesting VC 0 at output 0 (in_pri: 0, out_pri: 0).
54 | network_0/router_level3_511 |   Requesting VC 1 at output 0 (in_pri: 0, out_pri: 0).
54 | network_0/router_level3_511 |   Requesting VC 2 at output 0 (in_pri: 0, out_pri: 0).
54 | network_0/router_level3_511 |   Requesting VC 3 at output 0 (in_pri: 0, out_pri: 0).
54 | network_0/router_level3_511/vc_allocator | Input requests = [ 5 -> [ 47@0 ]  6 -> [ 33@0 34@0 35@0 ]  7 -> [ 37@0 ]  10 -> [ 37@0 ]  13 -> [ 33@0 34@0 35@0 ]  15 -> [ 37@0 ]  17 -> [ 42@0 43@0 ]  19 -> [ 47@0 ]  20 -> [ 55@0 ]  21 -> [ 37@0 ]  23 -> [ 49@0 ]  25 -> [ 49@0 ]  30 -> [ 60@0 62@0 63@0 ]  32 -> [ 0@0 1@0 2@0 3@0 ]  41 -> [ 29@0 30@0 31@0 ]  46 -> [ 24@0 25@0 26@0 27@0 ]  52 -> [ 0@0 1@0 2@0 3@0 ]  56 -> [ 12@0 13@0 14@0 15@0 ]  61 -> [ 20@0 21@0 22@0 23@0 ]  ], output requests = [ 0 -> [ 32@0 52@0 ]  1 -> [ 32@0 52@0 ]  2 -> [ 32@0 52@0 ]  3 -> [ 32@0 52@0 ]  12 -> [ 56@0 ]  13 -> [ 56@0 ]  14 -> [ 56@0 ]  15 -> [ 56@0 ]  20 -> [ 61@0 ]  21 -> [ 61@0 ]  22 -> [ 61@0 ]  23 -> [ 61@0 ]  24 -> [ 46@0 ]  25 -> [ 46@0 ]  26 -> [ 46@0 ]  27 -> [ 46@0 ]  29 -> [ 41@0 ]  30 -> [ 41@0 ]  31 -> [ 41@0 ]  33 -> [ 6@0 13@0 ]  34 -> [ 6@0 13@0 ]  35 -> [ 6@0 13@0 ]  37 -> [ 7@0 10@0 15@0 21@0 ]  42 -> [ 17@0 ]  43 -> [ 17@0 ]  47 -> [ 5@0 19@0 ]  49 -> [ 23@0 25@0 ]  55 -> [ 20@0 ]  60 -> [ 30@0 ]  62 -> [ 30@0 ]  63 -> [ 30@0 ]  ].
54 | network_0/router_level3_511/vc_allocator | Input grants = [ 6 -> 33  7 -> 37  17 -> 42  19 -> 47  20 -> 55  23 -> 49  30 -> 60  41 -> 29  46 -> 24  52 -> 0  56 -> 12  61 -> 20  ], output grants = [ 0 -> 52  12 -> 56  20 -> 61  24 -> 46  29 -> 41  33 -> 6  37 -> 7  42 -> 17  47 -> 19  49 -> 23  55 -> 20  60 -> 30  ].
54 | network_0/router_level3_511 | VC allocation failed for VC 0 at input 8.
54 | network_0/router_level3_511 | Completed VC allocation for VC 0 at input 8 (front: 7).
54 | network_0/router_level3_511 |   No output VC allocated.
55 | network_0/router_level3_511 | Beginning VC allocation for VC 0 at input 8 (front: 7).
55 | network_0/router_level3_511 |   VC 0 at output 0 is in use by VC 0 at input 13 (front flit: 53255).
55 | network_0/router_level3_511 |   Requesting VC 1 at output 0 (in_pri: 0, out_pri: 0).
55 | network_0/router_level3_511 |   Requesting VC 2 at output 0 (in_pri: 0, out_pri: 0).
55 | network_0/router_level3_511 |   Requesting VC 3 at output 0 (in_pri: 0, out_pri: 0).
55 | network_0/router_level3_511/vc_allocator | Input requests = [ 2 -> [ 34@0 35@0 ]  5 -> [ 45@0 ]  8 -> [ 40@0 43@0 ]  10 -> [ 36@0 ]  12 -> [ 51@0 ]  13 -> [ 34@0 35@0 ]  15 -> [ 36@0 ]  21 -> [ 36@0 ]  22 -> [ 36@0 ]  24 -> [ 40@0 43@0 ]  25 -> [ 51@0 ]  28 -> [ 36@0 ]  32 -> [ 1@0 2@0 3@0 ]  33 -> [ 21@0 22@0 23@0 ]  40 -> [ 1@0 2@0 3@0 ]  44 -> [ 13@0 14@0 15@0 ]  48 -> [ 8@0 9@0 10@0 11@0 ]  60 -> [ 1@0 2@0 3@0 ]  ], output requests = [ 1 -> [ 32@0 40@0 60@0 ]  2 -> [ 32@0 40@0 60@0 ]  3 -> [ 32@0 40@0 60@0 ]  8 -> [ 48@0 ]  9 -> [ 48@0 ]  10 -> [ 48@0 ]  11 -> [ 48@0 ]  13 -> [ 44@0 ]  14 -> [ 44@0 ]  15 -> [ 44@0 ]  21 -> [ 33@0 ]  22 -> [ 33@0 ]  23 -> [ 33@0 ]  34 -> [ 2@0 13@0 ]  35 -> [ 2@0 13@0 ]  36 -> [ 10@0 15@0 21@0 22@0 28@0 ]  40 -> [ 8@0 24@0 ]  43 -> [ 8@0 24@0 ]  45 -> [ 5@0 ]  51 -> [ 12@0 25@0 ]  ].
55 | network_0/router_level3_511/vc_allocator | Input grants = [ 2 -> 34  5 -> 45  8 -> 40  10 -> 36  24 -> 43  25 -> 51  33 -> 21  44 -> 13  48 -> 8  60 -> 1  ], output grants = [ 1 -> 60  8 -> 48  13 -> 44  21 -> 33  34 -> 2  36 -> 10  40 -> 8  43 -> 24  45 -> 5  51 -> 25  ].
55 | network_0/router_level3_511 | VC allocation failed for VC 0 at input 8.
55 | network_0/router_level3_511 | Completed VC allocation for VC 0 at input 8 (front: 7).
55 | network_0/router_level3_511 |   No output VC allocated.
56 | network_0/router_level3_511 | Beginning VC allocation for VC 0 at input 8 (front: 7).
56 | network_0/router_level3_511 |   Requesting VC 0 at output 0 (in_pri: 0, out_pri: 0).
56 | network_0/router_level3_511 |   VC 1 at output 0 is in use by VC 0 at input 15 (front flit: 73735).
56 | network_0/router_level3_511 |   Requesting VC 2 at output 0 (in_pri: 0, out_pri: 0).
56 | network_0/router_level3_511 |   Requesting VC 3 at output 0 (in_pri: 0, out_pri: 0).
56 | network_0/router_level3_511/vc_allocator | Input requests = [ 1 -> [ 53@0 54@0 ]  11 -> [ 46@0 ]  13 -> [ 33@0 35@0 ]  15 -> [ 39@0 ]  18 -> [ 61@0 62@0 63@0 ]  21 -> [ 39@0 ]  22 -> [ 39@0 ]  26 -> [ 39@0 ]  28 -> [ 39@0 ]  29 -> [ 39@0 ]  32 -> [ 0@0 2@0 3@0 ]  34 -> [ 16@0 17@0 18@0 19@0 ]  40 -> [ 0@0 2@0 3@0 ]  42 -> [ 24@0 25@0 26@0 27@0 ]  45 -> [ 9@0 10@0 11@0 ]  56 -> [ 12@0 14@0 15@0 ]  61 -> [ 9@0 10@0 11@0 ]  ], output requests = [ 0 -> [ 32@0 40@0 ]  2 -> [ 32@0 40@0 ]  3 -> [ 32@0 40@0 ]  9 -> [ 45@0 61@0 ]  10 -> [ 45@0 61@0 ]  11 -> [ 45@0 61@0 ]  12 -> [ 56@0 ]  14 -> [ 56@0 ]  15 -> [ 56@0 ]  16 -> [ 34@0 ]  17 -> [ 34@0 ]  18 -> [ 34@0 ]  19 -> [ 34@0 ]  24 -> [ 42@0 ]  25 -> [ 42@0 ]  26 -> [ 42@0 ]  27 -> [ 42@0 ]  33 -> [ 13@0 ]  35 -> [ 13@0 ]  39 -> [ 15@0 21@0 22@0 26@0 28@0 29@0 ]  46 -> [ 11@0 ]  53 -> [ 1@0 ]  54 -> [ 1@0 ]  61 -> [ 18@0 ]  62 -> [ 18@0 ]  63 -> [ 18@0 ]  ].
56 | network_0/router_level3_511/vc_allocator | Input grants = [ 1 -> 53  11 -> 46  13 -> 33  18 -> 61  21 -> 39  32 -> 0  34 -> 16  42 -> 24  45 -> 9  56 -> 14  ], output grants = [ 0 -> 32  9 -> 45  14 -> 56  16 -> 34  24 -> 42  33 -> 13  39 -> 21  46 -> 11  53 -> 1  61 -> 18  ].
56 | network_0/router_level3_511 | Assigning VC 0 at output 0 to VC 0 at input 8.
56 | network_0/router_level3_511 | Completed VC allocation for VC 0 at input 8 (front: 7).
56 | network_0/router_level3_511 |   Acquiring assigned VC 0 at output 0.
56 | network_0/router_level3_511/buf_8/vc_0 | Changing state from vc_alloc to active.
57 | network_0/router_level3_511 | Beginning switch allocation for VC 0 at input 8 (front: 7).
57 | network_0/router_level3_511 |   Requesting output 0.0 (non-spec, pri: 0).
57 | network_0/router_level3_511/sw_allocator | Input requests = [ 0 -> [ 8@0 12@0 13@0 ]  1 -> [ 9@0 11@0 12@0 ]  2 -> [ 9@0 10@0 11@0 ]  3 -> [ 8@0 ]  4 -> [ 11@0 15@0 ]  5 -> [ 9@0 12@0 ]  6 -> [ 10@0 14@0 ]  7 -> [ 15@0 ]  8 -> [ 0@0 4@0 ]  10 -> [ 6@0 ]  11 -> [ 2@0 ]  14 -> [ 3@0 ]  ], output requests = [ 0 -> [ 8@0 ]  2 -> [ 11@0 ]  3 -> [ 14@0 ]  4 -> [ 8@0 ]  6 -> [ 10@0 ]  8 -> [ 0@0 3@0 ]  9 -> [ 1@0 2@0 5@0 ]  10 -> [ 2@0 6@0 ]  11 -> [ 1@0 2@0 4@0 ]  12 -> [ 0@0 1@0 5@0 ]  13 -> [ 0@0 ]  14 -> [ 6@0 ]  15 -> [ 4@0 7@0 ]  ].
57 | network_0/router_level3_511/sw_allocator | Input grants = [ 0 -> 12  1 -> 9  3 -> 8  4 -> 11  6 -> 14  7 -> 15  8 -> 0  10 -> 6  11 -> 2  14 -> 3  ], output grants = [ 0 -> 8  2 -> 11  3 -> 14  6 -> 10  8 -> 3  9 -> 1  11 -> 4  12 -> 0  14 -> 6  15 -> 7  ].
57 | network_0/router_level3_511 | Assigning output 0.0 to VC 0 at input 8.0.
57 | network_0/router_level3_511 | Completed switch allocation for VC 0 at input 8 (front: 7).
57 | network_0/router_level3_511 |   Scheduling switch connection from input 8.0 to output 0.0.
58 | network_0/router_level3_511 | Beginning crossbar traversal for flit 7 from input 8.0 to output 0.0.
58 | network_0/router_level3_511 | Completed crossbar traversal for flit 7 from input 8.0 to output 0.0.
58 | network_0/router_level3_511 | Buffering flit 7 at output 0.
58 | network_0/router_level3_511 | Sending flit 7 to channel at output 0.
59 | network_0/network_0_fchan_egress4088 | Beginning channel traversal for flit 7 with delay 1.
59 | network_0/network_0_fchan_egress4088 | Completed channel traversal for flit 7.
60 | node4088 | Ejecting flit 7 (packet 7) from VC 0.
60 | node4088 | Injecting credit for VC 0 into subnet 0.
60 | node4088 | Retiring flit 7 (packet 7, src = 7, dest = 4088, hops = 7, flat = 60).
60 | node4088 | Retiring packet 7 (plat = 60, nlat = 60, frag = 0, src = 7, dest = 4088).
Class 0:
Packet latency average = 303.099
	minimum = 30
	maximum = 776
Network latency average = 258.889
	minimum = 30
	maximum = 753
Slowest packet = 802145
Flit latency average = 258.889
	minimum = 30
	maximum = 753
Slowest flit = 926902
Fragmentation average = 0
	minimum = 0
	maximum = 0
Injected packet rate average = 0.578505
	minimum = 0.438 (at node 1700)
	maximum = 0.676 (at node 3478)
Accepted packet rate average = 0.421459
	minimum = 0.33 (at node 2552)
	maximum = 0.495 (at node 335)
Injected flit rate average = 0.578505
	minimum = 0.438 (at node 1700)
	maximum = 0.676 (at node 3478)
Accepted flit rate average= 0.421459
	minimum = 0.33 (at node 2552)
	maximum = 0.495 (at node 335)
Injected packet length average = 1
Accepted packet length average = 1
Total in-flight flits = 645589 (0 measured)
latency change    = 1
throughput change = 1
Class 0:
Packet latency average = 585.509
	minimum = 30
	maximum = 1454
Network latency average = 309.309
	minimum = 30
	maximum = 1066
Slowest packet = 935337
Flit latency average = 309.309
	minimum = 30
	maximum = 1066
Slowest flit = 2109348
Fragmentation average = 0
	minimum = 0
	maximum = 0
Injected packet rate average = 0.502307
	minimum = 0.4095 (at node 61)
	maximum = 0.593 (at node 1131)
Accepted packet rate average = 0.428256
	minimum = 0.3405 (at node 2395)
	maximum = 0.509 (at node 2964)
Injected flit rate average = 0.502307
	minimum = 0.4095 (at node 61)
	maximum = 0.593 (at node 1131)
Accepted flit rate average= 0.428256
	minimum = 0.3405 (at node 2395)
	maximum = 0.509 (at node 2964)
Injected packet length average = 1
Accepted packet length average = 1
Total in-flight flits = 609003 (0 measured)
latency change    = 0.482333
throughput change = 0.0158702
Average latency for class 0 exceeded 500 cycles. Aborting simulation.
Too many sample periods needed to converge
Simulation unstable, ending ...
Total run time 498.406
