BEGIN Configuration File: examples/fattree_config_0.25_2_bitcomp
// $Id: dragonflyconfig 3555 2011-05-16 23:37:55Z dub $

// Copyright (c) 2007-2015, Trustees of The Leland Stanford Junior University
// All rights reserved.
//
// Redistribution and use in source and binary forms, with or without
// modification, are permitted provided that the following conditions are met:
//
// Redistributions of source code must retain the above copyright notice, this
// list of conditions and the following disclaimer.
// Redistributions in binary form must reproduce the above copyright notice,
// this list of conditions and the following disclaimer in the documentation
// and/or other materials provided with the distribution.
//
// THIS SOFTWARE IS PROVIDED BY THE COPYRIGHT HOLDERS AND CONTRIBUTORS "AS IS"
// AND ANY EXPRESS OR IMPLIED WARRANTIES, INCLUDING, BUT NOT LIMITED TO, THE
// IMPLIED WARRANTIES OF MERCHANTABILITY AND FITNESS FOR A PARTICULAR PURPOSE
// ARE DISCLAIMED. IN NO EVENT SHALL THE COPYRIGHT OWNER OR CONTRIBUTORS BE
// LIABLE FOR ANY DIRECT, INDIRECT, INCIDENTAL, SPECIAL, EXEMPLARY, OR
// CONSEQUENTIAL DAMAGES (INCLUDING, BUT NOT LIMITED TO, PROCUREMENT OF
// SUBSTITUTE GOODS OR SERVICES; LOSS OF USE, DATA, OR PROFITS; OR BUSINESS
// INTERRUPTION) HOWEVER CAUSED AND ON ANY THEORY OF LIABILITY, WHETHER IN
// CONTRACT, STRICT LIABILITY, OR TORT (INCLUDING NEGLIGENCE OR OTHERWISE)
// ARISING IN ANY WAY OUT OF THE USE OF THIS SOFTWARE, EVEN IF ADVISED OF THE
// POSSIBILITY OF SUCH DAMAGE.


hold_switch_for_packet=1;

vc_buf_size = 16;


wait_for_tail_credit = 0;

//
// Router architecture
//
vc_allocator = separable_input_first; 
sw_allocator = separable_input_first;
alloc_iters  = 1;

credit_delay   = 2;
routing_delay  = 0;
vc_alloc_delay = 1;
sw_alloc_delay = 1;
st_final_delay = 1;

input_speedup     = 1;
output_speedup    = 1;
internal_speedup  = 1.0;


warmup_periods = 3;
sim_count          = 1;

sample_period  = 1000;  

routing_function = nca;
num_vcs     = 4;

priority = none;
traffic = bitcomp;


injection_rate = 0.25;
packet_size = 1;
injection_rate_uses_flits=1;

topology = fattree;

k  = 8;
n  = 4;
t = 2;

watch_file = watchfile.txt;
watch_out=-;
stats_out = examples/fattree_config_0.25_2_bitcomp.m;

END Configuration File: examples/fattree_config_0.25_2_bitcomp
Fat Tree
 k = 8 levels = 4
 each switch - total radix =  16
 # of switches = 2048
 # of channels = 24576
 # of nodes ( size of network ) = 4096
 tapering factor = 2
0 | node15 | Enqueuing flit 1 (packet 1) at time 0.
0 | node18 | Enqueuing flit 2 (packet 2) at time 0.
0 | node31 | Enqueuing flit 3 (packet 3) at time 0.
0 | node34 | Enqueuing flit 4 (packet 4) at time 0.
0 | node40 | Enqueuing flit 5 (packet 5) at time 0.
0 | node47 | Enqueuing flit 6 (packet 6) at time 0.
0 | node53 | Enqueuing flit 7 (packet 7) at time 0.
0 | node54 | Enqueuing flit 8 (packet 8) at time 0.
0 | node55 | Enqueuing flit 9 (packet 9) at time 0.
0 | node58 | Enqueuing flit 10 (packet 10) at time 0.
0 | traffic_manager | Finding output VC for flit 1:
0 | traffic_manager |   Selected output VC 0.
0 | node15 | Generating lookahead routing info for flit 1.
0 | node15 | Injecting flit 1 into subnet 0 at time 0 with priority 0.
0 | traffic_manager | Finding output VC for flit 2:
0 | traffic_manager |   Selected output VC 0.
0 | node18 | Generating lookahead routing info for flit 2.
0 | node18 | Injecting flit 2 into subnet 0 at time 0 with priority 0.
0 | traffic_manager | Finding output VC for flit 3:
0 | traffic_manager |   Selected output VC 0.
0 | node31 | Generating lookahead routing info for flit 3.
0 | node31 | Injecting flit 3 into subnet 0 at time 0 with priority 0.
0 | traffic_manager | Finding output VC for flit 4:
0 | traffic_manager |   Selected output VC 0.
0 | node34 | Generating lookahead routing info for flit 4.
0 | node34 | Injecting flit 4 into subnet 0 at time 0 with priority 0.
0 | traffic_manager | Finding output VC for flit 5:
0 | traffic_manager |   Selected output VC 0.
0 | node40 | Generating lookahead routing info for flit 5.
0 | node40 | Injecting flit 5 into subnet 0 at time 0 with priority 0.
0 | traffic_manager | Finding output VC for flit 6:
0 | traffic_manager |   Selected output VC 0.
0 | node47 | Generating lookahead routing info for flit 6.
0 | node47 | Injecting flit 6 into subnet 0 at time 0 with priority 0.
0 | traffic_manager | Finding output VC for flit 7:
0 | traffic_manager |   Selected output VC 0.
0 | node53 | Generating lookahead routing info for flit 7.
0 | node53 | Injecting flit 7 into subnet 0 at time 0 with priority 0.
0 | traffic_manager | Finding output VC for flit 8:
0 | traffic_manager |   Selected output VC 0.
0 | node54 | Generating lookahead routing info for flit 8.
0 | node54 | Injecting flit 8 into subnet 0 at time 0 with priority 0.
0 | traffic_manager | Finding output VC for flit 9:
0 | traffic_manager |   Selected output VC 0.
0 | node55 | Generating lookahead routing info for flit 9.
0 | node55 | Injecting flit 9 into subnet 0 at time 0 with priority 0.
0 | traffic_manager | Finding output VC for flit 10:
0 | traffic_manager |   Selected output VC 0.
0 | node58 | Generating lookahead routing info for flit 10.
0 | node58 | Injecting flit 10 into subnet 0 at time 0 with priority 0.
1 | network_0/network_0_fchan_ingress15 | Beginning channel traversal for flit 1 with delay 1.
1 | network_0/network_0_fchan_ingress18 | Beginning channel traversal for flit 2 with delay 1.
1 | network_0/network_0_fchan_ingress31 | Beginning channel traversal for flit 3 with delay 1.
1 | network_0/network_0_fchan_ingress34 | Beginning channel traversal for flit 4 with delay 1.
1 | network_0/network_0_fchan_ingress40 | Beginning channel traversal for flit 5 with delay 1.
1 | network_0/network_0_fchan_ingress47 | Beginning channel traversal for flit 6 with delay 1.
1 | network_0/network_0_fchan_ingress53 | Beginning channel traversal for flit 7 with delay 1.
1 | network_0/network_0_fchan_ingress54 | Beginning channel traversal for flit 8 with delay 1.
1 | network_0/network_0_fchan_ingress55 | Beginning channel traversal for flit 9 with delay 1.
1 | network_0/network_0_fchan_ingress58 | Beginning channel traversal for flit 10 with delay 1.
1 | network_0/network_0_fchan_ingress15 | Completed channel traversal for flit 1.
1 | network_0/network_0_fchan_ingress18 | Completed channel traversal for flit 2.
1 | network_0/network_0_fchan_ingress31 | Completed channel traversal for flit 3.
1 | network_0/network_0_fchan_ingress34 | Completed channel traversal for flit 4.
1 | network_0/network_0_fchan_ingress40 | Completed channel traversal for flit 5.
1 | network_0/network_0_fchan_ingress47 | Completed channel traversal for flit 6.
1 | network_0/network_0_fchan_ingress53 | Completed channel traversal for flit 7.
1 | network_0/network_0_fchan_ingress54 | Completed channel traversal for flit 8.
1 | network_0/network_0_fchan_ingress55 | Completed channel traversal for flit 9.
1 | network_0/network_0_fchan_ingress58 | Completed channel traversal for flit 10.
2 | network_0/router_level3_1 | Received flit 1 from channel at input 7.
2 | network_0/router_level3_2 | Received flit 2 from channel at input 2.
2 | network_0/router_level3_3 | Received flit 3 from channel at input 7.
2 | network_0/router_level3_4 | Received flit 4 from channel at input 2.
2 | network_0/router_level3_5 | Received flit 5 from channel at input 0.
2 | network_0/router_level3_5 | Received flit 6 from channel at input 7.
2 | network_0/router_level3_6 | Received flit 7 from channel at input 5.
2 | network_0/router_level3_6 | Received flit 8 from channel at input 6.
2 | network_0/router_level3_6 | Received flit 9 from channel at input 7.
2 | network_0/router_level3_7 | Received flit 10 from channel at input 2.
2 | network_0/router_level3_1 | Adding flit 1 to VC 0 at input 7 (state: idle, empty).
2 | network_0/router_level3_1 | Using precomputed lookahead routing information for VC 0 at input 7 (front: 1).
2 | network_0/router_level3_1/buf_7/vc_0 | Changing state from idle to vc_alloc.
2 | network_0/router_level3_1 | Beginning VC allocation for VC 0 at input 7 (front: 1).
2 | network_0/router_level3_1 |   Requesting VC 0 at output 8 (in_pri: 0, out_pri: 0).
2 | network_0/router_level3_1 |   Requesting VC 1 at output 8 (in_pri: 0, out_pri: 0).
2 | network_0/router_level3_1 |   Requesting VC 2 at output 8 (in_pri: 0, out_pri: 0).
2 | network_0/router_level3_1 |   Requesting VC 3 at output 8 (in_pri: 0, out_pri: 0).
2 | network_0/router_level3_1/vc_allocator | Input requests = [ 20 -> [ 40@0 41@0 42@0 43@0 ]  28 -> [ 32@0 33@0 34@0 35@0 ]  ], output requests = [ 32 -> [ 28@0 ]  33 -> [ 28@0 ]  34 -> [ 28@0 ]  35 -> [ 28@0 ]  40 -> [ 20@0 ]  41 -> [ 20@0 ]  42 -> [ 20@0 ]  43 -> [ 20@0 ]  ].
2 | network_0/router_level3_1/vc_allocator | Input grants = [ 20 -> 40  28 -> 32  ], output grants = [ 32 -> 28  40 -> 20  ].
2 | network_0/router_level3_1 | Assigning VC 0 at output 8 to VC 0 at input 7.
2 | network_0/router_level3_1 | Completed VC allocation for VC 0 at input 7 (front: 1).
2 | network_0/router_level3_1 |   Acquiring assigned VC 0 at output 8.
2 | network_0/router_level3_1/buf_7/vc_0 | Changing state from vc_alloc to active.
2 | network_0/router_level3_2 | Adding flit 2 to VC 0 at input 2 (state: idle, empty).
2 | network_0/router_level3_2 | Using precomputed lookahead routing information for VC 0 at input 2 (front: 2).
2 | network_0/router_level3_2/buf_2/vc_0 | Changing state from idle to vc_alloc.
2 | network_0/router_level3_2 | Beginning VC allocation for VC 0 at input 2 (front: 2).
2 | network_0/router_level3_2 |   Requesting VC 0 at output 15 (in_pri: 0, out_pri: 0).
2 | network_0/router_level3_2 |   Requesting VC 1 at output 15 (in_pri: 0, out_pri: 0).
2 | network_0/router_level3_2 |   Requesting VC 2 at output 15 (in_pri: 0, out_pri: 0).
2 | network_0/router_level3_2 |   Requesting VC 3 at output 15 (in_pri: 0, out_pri: 0).
2 | network_0/router_level3_2/vc_allocator | Input requests = [ 8 -> [ 60@0 61@0 62@0 63@0 ]  ], output requests = [ 60 -> [ 8@0 ]  61 -> [ 8@0 ]  62 -> [ 8@0 ]  63 -> [ 8@0 ]  ].
2 | network_0/router_level3_2/vc_allocator | Input grants = [ 8 -> 60  ], output grants = [ 60 -> 8  ].
2 | network_0/router_level3_2 | Assigning VC 0 at output 15 to VC 0 at input 2.
2 | network_0/router_level3_2 | Completed VC allocation for VC 0 at input 2 (front: 2).
2 | network_0/router_level3_2 |   Acquiring assigned VC 0 at output 15.
2 | network_0/router_level3_2/buf_2/vc_0 | Changing state from vc_alloc to active.
2 | network_0/router_level3_3 | Adding flit 3 to VC 0 at input 7 (state: idle, empty).
2 | network_0/router_level3_3 | Using precomputed lookahead routing information for VC 0 at input 7 (front: 3).
2 | network_0/router_level3_3/buf_7/vc_0 | Changing state from idle to vc_alloc.
2 | network_0/router_level3_3 | Beginning VC allocation for VC 0 at input 7 (front: 3).
2 | network_0/router_level3_3 |   Requesting VC 0 at output 13 (in_pri: 0, out_pri: 0).
2 | network_0/router_level3_3 |   Requesting VC 1 at output 13 (in_pri: 0, out_pri: 0).
2 | network_0/router_level3_3 |   Requesting VC 2 at output 13 (in_pri: 0, out_pri: 0).
2 | network_0/router_level3_3 |   Requesting VC 3 at output 13 (in_pri: 0, out_pri: 0).
2 | network_0/router_level3_3/vc_allocator | Input requests = [ 28 -> [ 52@0 53@0 54@0 55@0 ]  ], output requests = [ 52 -> [ 28@0 ]  53 -> [ 28@0 ]  54 -> [ 28@0 ]  55 -> [ 28@0 ]  ].
2 | network_0/router_level3_3/vc_allocator | Input grants = [ 28 -> 52  ], output grants = [ 52 -> 28  ].
2 | network_0/router_level3_3 | Assigning VC 0 at output 13 to VC 0 at input 7.
2 | network_0/router_level3_3 | Completed VC allocation for VC 0 at input 7 (front: 3).
2 | network_0/router_level3_3 |   Acquiring assigned VC 0 at output 13.
2 | network_0/router_level3_3/buf_7/vc_0 | Changing state from vc_alloc to active.
2 | network_0/router_level3_4 | Adding flit 4 to VC 0 at input 2 (state: idle, empty).
2 | network_0/router_level3_4 | Using precomputed lookahead routing information for VC 0 at input 2 (front: 4).
2 | network_0/router_level3_4/buf_2/vc_0 | Changing state from idle to vc_alloc.
2 | network_0/router_level3_4 | Beginning VC allocation for VC 0 at input 2 (front: 4).
2 | network_0/router_level3_4 |   Requesting VC 0 at output 13 (in_pri: 0, out_pri: 0).
2 | network_0/router_level3_4 |   Requesting VC 1 at output 13 (in_pri: 0, out_pri: 0).
2 | network_0/router_level3_4 |   Requesting VC 2 at output 13 (in_pri: 0, out_pri: 0).
2 | network_0/router_level3_4 |   Requesting VC 3 at output 13 (in_pri: 0, out_pri: 0).
2 | network_0/router_level3_4/vc_allocator | Input requests = [ 8 -> [ 52@0 53@0 54@0 55@0 ]  ], output requests = [ 52 -> [ 8@0 ]  53 -> [ 8@0 ]  54 -> [ 8@0 ]  55 -> [ 8@0 ]  ].
2 | network_0/router_level3_4/vc_allocator | Input grants = [ 8 -> 52  ], output grants = [ 52 -> 8  ].
2 | network_0/router_level3_4 | Assigning VC 0 at output 13 to VC 0 at input 2.
2 | network_0/router_level3_4 | Completed VC allocation for VC 0 at input 2 (front: 4).
2 | network_0/router_level3_4 |   Acquiring assigned VC 0 at output 13.
2 | network_0/router_level3_4/buf_2/vc_0 | Changing state from vc_alloc to active.
2 | network_0/router_level3_5 | Adding flit 5 to VC 0 at input 0 (state: idle, empty).
2 | network_0/router_level3_5 | Using precomputed lookahead routing information for VC 0 at input 0 (front: 5).
2 | network_0/router_level3_5/buf_0/vc_0 | Changing state from idle to vc_alloc.
2 | network_0/router_level3_5 | Adding flit 6 to VC 0 at input 7 (state: idle, empty).
2 | network_0/router_level3_5 | Using precomputed lookahead routing information for VC 0 at input 7 (front: 6).
2 | network_0/router_level3_5/buf_7/vc_0 | Changing state from idle to vc_alloc.
2 | network_0/router_level3_5 | Beginning VC allocation for VC 0 at input 0 (front: 5).
2 | network_0/router_level3_5 |   Requesting VC 0 at output 9 (in_pri: 0, out_pri: 0).
2 | network_0/router_level3_5 |   Requesting VC 1 at output 9 (in_pri: 0, out_pri: 0).
2 | network_0/router_level3_5 |   Requesting VC 2 at output 9 (in_pri: 0, out_pri: 0).
2 | network_0/router_level3_5 |   Requesting VC 3 at output 9 (in_pri: 0, out_pri: 0).
2 | network_0/router_level3_5 | Beginning VC allocation for VC 0 at input 7 (front: 6).
2 | network_0/router_level3_5 |   Requesting VC 0 at output 11 (in_pri: 0, out_pri: 0).
2 | network_0/router_level3_5 |   Requesting VC 1 at output 11 (in_pri: 0, out_pri: 0).
2 | network_0/router_level3_5 |   Requesting VC 2 at output 11 (in_pri: 0, out_pri: 0).
2 | network_0/router_level3_5 |   Requesting VC 3 at output 11 (in_pri: 0, out_pri: 0).
2 | network_0/router_level3_5/vc_allocator | Input requests = [ 0 -> [ 36@0 37@0 38@0 39@0 ]  28 -> [ 44@0 45@0 46@0 47@0 ]  ], output requests = [ 36 -> [ 0@0 ]  37 -> [ 0@0 ]  38 -> [ 0@0 ]  39 -> [ 0@0 ]  44 -> [ 28@0 ]  45 -> [ 28@0 ]  46 -> [ 28@0 ]  47 -> [ 28@0 ]  ].
2 | network_0/router_level3_5/vc_allocator | Input grants = [ 0 -> 36  28 -> 44  ], output grants = [ 36 -> 0  44 -> 28  ].
2 | network_0/router_level3_5 | Assigning VC 0 at output 9 to VC 0 at input 0.
2 | network_0/router_level3_5 | Assigning VC 0 at output 11 to VC 0 at input 7.
2 | network_0/router_level3_5 | Completed VC allocation for VC 0 at input 0 (front: 5).
2 | network_0/router_level3_5 |   Acquiring assigned VC 0 at output 9.
2 | network_0/router_level3_5/buf_0/vc_0 | Changing state from vc_alloc to active.
2 | network_0/router_level3_5 | Completed VC allocation for VC 0 at input 7 (front: 6).
2 | network_0/router_level3_5 |   Acquiring assigned VC 0 at output 11.
2 | network_0/router_level3_5/buf_7/vc_0 | Changing state from vc_alloc to active.
2 | network_0/router_level3_6 | Adding flit 7 to VC 0 at input 5 (state: idle, empty).
2 | network_0/router_level3_6 | Using precomputed lookahead routing information for VC 0 at input 5 (front: 7).
2 | network_0/router_level3_6/buf_5/vc_0 | Changing state from idle to vc_alloc.
2 | network_0/router_level3_6 | Adding flit 8 to VC 0 at input 6 (state: idle, empty).
2 | network_0/router_level3_6 | Using precomputed lookahead routing information for VC 0 at input 6 (front: 8).
2 | network_0/router_level3_6/buf_6/vc_0 | Changing state from idle to vc_alloc.
2 | network_0/router_level3_6 | Adding flit 9 to VC 0 at input 7 (state: idle, empty).
2 | network_0/router_level3_6 | Using precomputed lookahead routing information for VC 0 at input 7 (front: 9).
2 | network_0/router_level3_6/buf_7/vc_0 | Changing state from idle to vc_alloc.
2 | network_0/router_level3_6 | Beginning VC allocation for VC 0 at input 5 (front: 7).
2 | network_0/router_level3_6 |   Requesting VC 0 at output 14 (in_pri: 0, out_pri: 0).
2 | network_0/router_level3_6 |   Requesting VC 1 at output 14 (in_pri: 0, out_pri: 0).
2 | network_0/router_level3_6 |   Requesting VC 2 at output 14 (in_pri: 0, out_pri: 0).
2 | network_0/router_level3_6 |   Requesting VC 3 at output 14 (in_pri: 0, out_pri: 0).
2 | network_0/router_level3_6 | Beginning VC allocation for VC 0 at input 6 (front: 8).
2 | network_0/router_level3_6 |   Requesting VC 0 at output 12 (in_pri: 0, out_pri: 0).
2 | network_0/router_level3_6 |   Requesting VC 1 at output 12 (in_pri: 0, out_pri: 0).
2 | network_0/router_level3_6 |   Requesting VC 2 at output 12 (in_pri: 0, out_pri: 0).
2 | network_0/router_level3_6 |   Requesting VC 3 at output 12 (in_pri: 0, out_pri: 0).
2 | network_0/router_level3_6 | Beginning VC allocation for VC 0 at input 7 (front: 9).
2 | network_0/router_level3_6 |   Requesting VC 0 at output 12 (in_pri: 0, out_pri: 0).
2 | network_0/router_level3_6 |   Requesting VC 1 at output 12 (in_pri: 0, out_pri: 0).
2 | network_0/router_level3_6 |   Requesting VC 2 at output 12 (in_pri: 0, out_pri: 0).
2 | network_0/router_level3_6 |   Requesting VC 3 at output 12 (in_pri: 0, out_pri: 0).
2 | network_0/router_level3_6/vc_allocator | Input requests = [ 20 -> [ 56@0 57@0 58@0 59@0 ]  24 -> [ 48@0 49@0 50@0 51@0 ]  28 -> [ 48@0 49@0 50@0 51@0 ]  ], output requests = [ 48 -> [ 24@0 28@0 ]  49 -> [ 24@0 28@0 ]  50 -> [ 24@0 28@0 ]  51 -> [ 24@0 28@0 ]  56 -> [ 20@0 ]  57 -> [ 20@0 ]  58 -> [ 20@0 ]  59 -> [ 20@0 ]  ].
2 | network_0/router_level3_6/vc_allocator | Input grants = [ 20 -> 56  24 -> 48  ], output grants = [ 48 -> 24  56 -> 20  ].
2 | network_0/router_level3_6 | Assigning VC 0 at output 14 to VC 0 at input 5.
2 | network_0/router_level3_6 | Assigning VC 0 at output 12 to VC 0 at input 6.
2 | network_0/router_level3_6 | VC allocation failed for VC 0 at input 7.
2 | network_0/router_level3_6 | Completed VC allocation for VC 0 at input 5 (front: 7).
2 | network_0/router_level3_6 |   Acquiring assigned VC 0 at output 14.
2 | network_0/router_level3_6/buf_5/vc_0 | Changing state from vc_alloc to active.
2 | network_0/router_level3_6 | Completed VC allocation for VC 0 at input 6 (front: 8).
2 | network_0/router_level3_6 |   Acquiring assigned VC 0 at output 12.
2 | network_0/router_level3_6/buf_6/vc_0 | Changing state from vc_alloc to active.
2 | network_0/router_level3_6 | Completed VC allocation for VC 0 at input 7 (front: 9).
2 | network_0/router_level3_6 |   No output VC allocated.
2 | network_0/router_level3_7 | Adding flit 10 to VC 0 at input 2 (state: idle, empty).
2 | network_0/router_level3_7 | Using precomputed lookahead routing information for VC 0 at input 2 (front: 10).
2 | network_0/router_level3_7/buf_2/vc_0 | Changing state from idle to vc_alloc.
2 | network_0/router_level3_7 | Beginning VC allocation for VC 0 at input 2 (front: 10).
2 | network_0/router_level3_7 |   Requesting VC 0 at output 15 (in_pri: 0, out_pri: 0).
2 | network_0/router_level3_7 |   Requesting VC 1 at output 15 (in_pri: 0, out_pri: 0).
2 | network_0/router_level3_7 |   Requesting VC 2 at output 15 (in_pri: 0, out_pri: 0).
2 | network_0/router_level3_7 |   Requesting VC 3 at output 15 (in_pri: 0, out_pri: 0).
2 | network_0/router_level3_7/vc_allocator | Input requests = [ 8 -> [ 60@0 61@0 62@0 63@0 ]  24 -> [ 36@0 37@0 38@0 39@0 ]  ], output requests = [ 36 -> [ 24@0 ]  37 -> [ 24@0 ]  38 -> [ 24@0 ]  39 -> [ 24@0 ]  60 -> [ 8@0 ]  61 -> [ 8@0 ]  62 -> [ 8@0 ]  63 -> [ 8@0 ]  ].
2 | network_0/router_level3_7/vc_allocator | Input grants = [ 8 -> 60  24 -> 36  ], output grants = [ 36 -> 24  60 -> 8  ].
2 | network_0/router_level3_7 | Assigning VC 0 at output 15 to VC 0 at input 2.
2 | network_0/router_level3_7 | Completed VC allocation for VC 0 at input 2 (front: 10).
2 | network_0/router_level3_7 |   Acquiring assigned VC 0 at output 15.
2 | network_0/router_level3_7/buf_2/vc_0 | Changing state from vc_alloc to active.
3 | network_0/router_level3_1 | Beginning switch allocation for VC 0 at input 7 (front: 1).
3 | network_0/router_level3_1 |   Requesting output 8.0 (non-spec, pri: 0).
3 | network_0/router_level3_1/sw_allocator | Input requests = [ 5 -> [ 10@0 ]  7 -> [ 8@0 ]  ], output requests = [ 8 -> [ 7@0 ]  10 -> [ 5@0 ]  ].
3 | network_0/router_level3_1/sw_allocator | Input grants = [ 5 -> 10  7 -> 8  ], output grants = [ 8 -> 7  10 -> 5  ].
3 | network_0/router_level3_1 | Assigning output 8.0 to VC 0 at input 7.0.
3 | network_0/router_level3_1 | Completed switch allocation for VC 0 at input 7 (front: 1).
3 | network_0/router_level3_1 |   Scheduling switch connection from input 7.0 to output 8.0.
3 | network_0/router_level3_1 | Updating lookahead routing information for flit 1.
3 | network_0/router_level3_2 | Beginning switch allocation for VC 0 at input 2 (front: 2).
3 | network_0/router_level3_2 |   Requesting output 15.0 (non-spec, pri: 0).
3 | network_0/router_level3_2/sw_allocator | Input requests = [ 2 -> [ 15@0 ]  ], output requests = [ 15 -> [ 2@0 ]  ].
3 | network_0/router_level3_2/sw_allocator | Input grants = [ 2 -> 15  ], output grants = [ 15 -> 2  ].
3 | network_0/router_level3_2 | Assigning output 15.0 to VC 0 at input 2.0.
3 | network_0/router_level3_2 | Completed switch allocation for VC 0 at input 2 (front: 2).
3 | network_0/router_level3_2 |   Scheduling switch connection from input 2.0 to output 15.0.
3 | network_0/router_level3_2 | Updating lookahead routing information for flit 2.
3 | network_0/router_level3_3 | Beginning switch allocation for VC 0 at input 7 (front: 3).
3 | network_0/router_level3_3 |   Requesting output 13.0 (non-spec, pri: 0).
3 | network_0/router_level3_3/sw_allocator | Input requests = [ 7 -> [ 13@0 ]  ], output requests = [ 13 -> [ 7@0 ]  ].
3 | network_0/router_level3_3/sw_allocator | Input grants = [ 7 -> 13  ], output grants = [ 13 -> 7  ].
3 | network_0/router_level3_3 | Assigning output 13.0 to VC 0 at input 7.0.
3 | network_0/router_level3_3 | Completed switch allocation for VC 0 at input 7 (front: 3).
3 | network_0/router_level3_3 |   Scheduling switch connection from input 7.0 to output 13.0.
3 | network_0/router_level3_3 | Updating lookahead routing information for flit 3.
3 | network_0/router_level3_4 | Beginning switch allocation for VC 0 at input 2 (front: 4).
3 | network_0/router_level3_4 |   Requesting output 13.0 (non-spec, pri: 0).
3 | network_0/router_level3_4/sw_allocator | Input requests = [ 2 -> [ 13@0 ]  ], output requests = [ 13 -> [ 2@0 ]  ].
3 | network_0/router_level3_4/sw_allocator | Input grants = [ 2 -> 13  ], output grants = [ 13 -> 2  ].
3 | network_0/router_level3_4 | Assigning output 13.0 to VC 0 at input 2.0.
3 | network_0/router_level3_4 | Completed switch allocation for VC 0 at input 2 (front: 4).
3 | network_0/router_level3_4 |   Scheduling switch connection from input 2.0 to output 13.0.
3 | network_0/router_level3_4 | Updating lookahead routing information for flit 4.
3 | network_0/router_level3_5 | Beginning switch allocation for VC 0 at input 0 (front: 5).
3 | network_0/router_level3_5 |   Requesting output 9.0 (non-spec, pri: 0).
3 | network_0/router_level3_5 | Beginning switch allocation for VC 0 at input 7 (front: 6).
3 | network_0/router_level3_5 |   Requesting output 11.0 (non-spec, pri: 0).
3 | network_0/router_level3_5/sw_allocator | Input requests = [ 0 -> [ 9@0 ]  7 -> [ 11@0 ]  ], output requests = [ 9 -> [ 0@0 ]  11 -> [ 7@0 ]  ].
3 | network_0/router_level3_5/sw_allocator | Input grants = [ 0 -> 9  7 -> 11  ], output grants = [ 9 -> 0  11 -> 7  ].
3 | network_0/router_level3_5 | Assigning output 9.0 to VC 0 at input 0.0.
3 | network_0/router_level3_5 | Assigning output 11.0 to VC 0 at input 7.0.
3 | network_0/router_level3_5 | Completed switch allocation for VC 0 at input 0 (front: 5).
3 | network_0/router_level3_5 |   Scheduling switch connection from input 0.0 to output 9.0.
3 | network_0/router_level3_5 | Updating lookahead routing information for flit 5.
3 | network_0/router_level3_5 | Completed switch allocation for VC 0 at input 7 (front: 6).
3 | network_0/router_level3_5 |   Scheduling switch connection from input 7.0 to output 11.0.
3 | network_0/router_level3_5 | Updating lookahead routing information for flit 6.
3 | network_0/router_level3_6 | Beginning VC allocation for VC 0 at input 7 (front: 9).
3 | network_0/router_level3_6 |   VC 0 at output 12 is in use by VC 0 at input 6 (front flit: 8).
3 | network_0/router_level3_6 |   Requesting VC 1 at output 12 (in_pri: 0, out_pri: 0).
3 | network_0/router_level3_6 |   Requesting VC 2 at output 12 (in_pri: 0, out_pri: 0).
3 | network_0/router_level3_6 |   Requesting VC 3 at output 12 (in_pri: 0, out_pri: 0).
3 | network_0/router_level3_6/vc_allocator | Input requests = [ 16 -> [ 52@0 53@0 54@0 55@0 ]  21 -> [ 60@0 61@0 62@0 63@0 ]  28 -> [ 49@0 50@0 51@0 ]  ], output requests = [ 49 -> [ 28@0 ]  50 -> [ 28@0 ]  51 -> [ 28@0 ]  52 -> [ 16@0 ]  53 -> [ 16@0 ]  54 -> [ 16@0 ]  55 -> [ 16@0 ]  60 -> [ 21@0 ]  61 -> [ 21@0 ]  62 -> [ 21@0 ]  63 -> [ 21@0 ]  ].
3 | network_0/router_level3_6/vc_allocator | Input grants = [ 16 -> 52  21 -> 60  28 -> 49  ], output grants = [ 49 -> 28  52 -> 16  60 -> 21  ].
3 | network_0/router_level3_6 | Assigning VC 1 at output 12 to VC 0 at input 7.
3 | network_0/router_level3_6 | Beginning switch allocation for VC 0 at input 5 (front: 7).
3 | network_0/router_level3_6 |   Requesting output 14.0 (non-spec, pri: 0).
3 | network_0/router_level3_6 | Beginning switch allocation for VC 0 at input 6 (front: 8).
3 | network_0/router_level3_6 |   Requesting output 12.0 (non-spec, pri: 0).
3 | network_0/router_level3_6/sw_allocator | Input requests = [ 5 -> [ 14@0 ]  6 -> [ 12@0 ]  ], output requests = [ 12 -> [ 6@0 ]  14 -> [ 5@0 ]  ].
3 | network_0/router_level3_6/sw_allocator | Input grants = [ 5 -> 14  6 -> 12  ], output grants = [ 12 -> 6  14 -> 5  ].
3 | network_0/router_level3_6 | Assigning output 14.0 to VC 0 at input 5.0.
3 | network_0/router_level3_6 | Assigning output 12.0 to VC 0 at input 6.0.
3 | network_0/router_level3_6 | Completed VC allocation for VC 0 at input 7 (front: 9).
3 | network_0/router_level3_6 |   Acquiring assigned VC 1 at output 12.
3 | network_0/router_level3_6/buf_7/vc_0 | Changing state from vc_alloc to active.
3 | network_0/router_level3_6 | Completed switch allocation for VC 0 at input 5 (front: 7).
3 | network_0/router_level3_6 |   Scheduling switch connection from input 5.0 to output 14.0.
3 | network_0/router_level3_6 | Updating lookahead routing information for flit 7.
3 | network_0/router_level3_6 | Completed switch allocation for VC 0 at input 6 (front: 8).
3 | network_0/router_level3_6 |   Scheduling switch connection from input 6.0 to output 12.0.
3 | network_0/router_level3_6 | Updating lookahead routing information for flit 8.
3 | network_0/router_level3_7 | Beginning switch allocation for VC 0 at input 2 (front: 10).
3 | network_0/router_level3_7 |   Requesting output 15.0 (non-spec, pri: 0).
3 | network_0/router_level3_7/sw_allocator | Input requests = [ 2 -> [ 15@0 ]  6 -> [ 9@0 ]  ], output requests = [ 9 -> [ 6@0 ]  15 -> [ 2@0 ]  ].
3 | network_0/router_level3_7/sw_allocator | Input grants = [ 2 -> 15  6 -> 9  ], output grants = [ 9 -> 6  15 -> 2  ].
3 | network_0/router_level3_7 | Assigning output 15.0 to VC 0 at input 2.0.
3 | network_0/router_level3_7 | Completed switch allocation for VC 0 at input 2 (front: 10).
3 | network_0/router_level3_7 |   Scheduling switch connection from input 2.0 to output 15.0.
3 | network_0/router_level3_7 | Updating lookahead routing information for flit 10.
4 | network_0/router_level3_1 | Beginning crossbar traversal for flit 1 from input 7.0 to output 8.0.
4 | network_0/router_level3_1 | Completed crossbar traversal for flit 1 from input 7.0 to output 8.0.
4 | network_0/router_level3_1 | Buffering flit 1 at output 8.
4 | network_0/router_level3_2 | Beginning crossbar traversal for flit 2 from input 2.0 to output 15.0.
4 | network_0/router_level3_2 | Completed crossbar traversal for flit 2 from input 2.0 to output 15.0.
4 | network_0/router_level3_2 | Buffering flit 2 at output 15.
4 | network_0/router_level3_3 | Beginning crossbar traversal for flit 3 from input 7.0 to output 13.0.
4 | network_0/router_level3_3 | Completed crossbar traversal for flit 3 from input 7.0 to output 13.0.
4 | network_0/router_level3_3 | Buffering flit 3 at output 13.
4 | network_0/router_level3_4 | Beginning crossbar traversal for flit 4 from input 2.0 to output 13.0.
4 | network_0/router_level3_4 | Completed crossbar traversal for flit 4 from input 2.0 to output 13.0.
4 | network_0/router_level3_4 | Buffering flit 4 at output 13.
4 | network_0/router_level3_5 | Beginning crossbar traversal for flit 5 from input 0.0 to output 9.0.
4 | network_0/router_level3_5 | Beginning crossbar traversal for flit 6 from input 7.0 to output 11.0.
4 | network_0/router_level3_5 | Completed crossbar traversal for flit 5 from input 0.0 to output 9.0.
4 | network_0/router_level3_5 | Buffering flit 5 at output 9.
4 | network_0/router_level3_5 | Completed crossbar traversal for flit 6 from input 7.0 to output 11.0.
4 | network_0/router_level3_5 | Buffering flit 6 at output 11.
4 | network_0/router_level3_6 | Beginning switch allocation for VC 0 at input 7 (front: 9).
4 | network_0/router_level3_6 |   Requesting output 12.0 (non-spec, pri: 0).
4 | network_0/router_level3_6/sw_allocator | Input requests = [ 4 -> [ 13@0 ]  5 -> [ 15@0 ]  7 -> [ 12@0 ]  ], output requests = [ 12 -> [ 7@0 ]  13 -> [ 4@0 ]  15 -> [ 5@0 ]  ].
4 | network_0/router_level3_6/sw_allocator | Input grants = [ 4 -> 13  5 -> 15  7 -> 12  ], output grants = [ 12 -> 7  13 -> 4  15 -> 5  ].
4 | network_0/router_level3_6 | Assigning output 12.0 to VC 0 at input 7.0.
4 | network_0/router_level3_6 | Beginning crossbar traversal for flit 7 from input 5.0 to output 14.0.
4 | network_0/router_level3_6 | Beginning crossbar traversal for flit 8 from input 6.0 to output 12.0.
4 | network_0/router_level3_6 | Completed switch allocation for VC 0 at input 7 (front: 9).
4 | network_0/router_level3_6 |   Scheduling switch connection from input 7.0 to output 12.0.
4 | network_0/router_level3_6 | Updating lookahead routing information for flit 9.
4 | network_0/router_level3_6 | Completed crossbar traversal for flit 7 from input 5.0 to output 14.0.
4 | network_0/router_level3_6 | Buffering flit 7 at output 14.
4 | network_0/router_level3_6 | Completed crossbar traversal for flit 8 from input 6.0 to output 12.0.
4 | network_0/router_level3_6 | Buffering flit 8 at output 12.
4 | network_0/router_level3_7 | Beginning crossbar traversal for flit 10 from input 2.0 to output 15.0.
4 | network_0/router_level3_7 | Completed crossbar traversal for flit 10 from input 2.0 to output 15.0.
4 | network_0/router_level3_7 | Buffering flit 10 at output 15.
4 | network_0/router_level3_1 | Sending flit 1 to channel at output 8.
4 | network_0/router_level3_2 | Sending flit 2 to channel at output 15.
4 | network_0/router_level3_3 | Sending flit 3 to channel at output 13.
4 | network_0/router_level3_4 | Sending flit 4 to channel at output 13.
4 | network_0/router_level3_5 | Sending flit 5 to channel at output 9.
4 | network_0/router_level3_5 | Sending flit 6 to channel at output 11.
4 | network_0/router_level3_6 | Sending flit 8 to channel at output 12.
4 | network_0/router_level3_6 | Sending flit 7 to channel at output 14.
4 | network_0/router_level3_7 | Sending flit 10 to channel at output 15.
5 | network_0/network_0_fchan_20488 | Beginning channel traversal for flit 1 with delay 1.
5 | network_0/network_0_fchan_20503 | Beginning channel traversal for flit 2 with delay 1.
5 | network_0/network_0_fchan_20509 | Beginning channel traversal for flit 3 with delay 1.
5 | network_0/network_0_fchan_20517 | Beginning channel traversal for flit 4 with delay 1.
5 | network_0/network_0_fchan_20521 | Beginning channel traversal for flit 5 with delay 1.
5 | network_0/network_0_fchan_20523 | Beginning channel traversal for flit 6 with delay 1.
5 | network_0/network_0_fchan_20532 | Beginning channel traversal for flit 8 with delay 1.
5 | network_0/network_0_fchan_20534 | Beginning channel traversal for flit 7 with delay 1.
5 | network_0/network_0_fchan_20543 | Beginning channel traversal for flit 10 with delay 1.
5 | network_0/router_level3_6 | Beginning crossbar traversal for flit 9 from input 7.0 to output 12.0.
5 | network_0/router_level3_6 | Completed crossbar traversal for flit 9 from input 7.0 to output 12.0.
5 | network_0/router_level3_6 | Buffering flit 9 at output 12.
5 | network_0/network_0_fchan_20488 | Completed channel traversal for flit 1.
5 | network_0/network_0_fchan_20503 | Completed channel traversal for flit 2.
5 | network_0/network_0_fchan_20509 | Completed channel traversal for flit 3.
5 | network_0/network_0_fchan_20517 | Completed channel traversal for flit 4.
5 | network_0/network_0_fchan_20521 | Completed channel traversal for flit 5.
5 | network_0/network_0_fchan_20523 | Completed channel traversal for flit 6.
5 | network_0/network_0_fchan_20532 | Completed channel traversal for flit 8.
5 | network_0/network_0_fchan_20534 | Completed channel traversal for flit 7.
5 | network_0/network_0_fchan_20543 | Completed channel traversal for flit 10.
5 | network_0/router_level3_6 | Sending flit 9 to channel at output 12.
6 | network_0/network_0_fchan_20532 | Beginning channel traversal for flit 9 with delay 1.
6 | network_0/router_level2_0 | Received flit 1 from channel at input 1.
6 | network_0/router_level2_1 | Received flit 5 from channel at input 5.
6 | network_0/router_level2_3 | Received flit 6 from channel at input 5.
6 | network_0/router_level2_4 | Received flit 8 from channel at input 6.
6 | network_0/router_level2_5 | Received flit 3 from channel at input 3.
6 | network_0/router_level2_5 | Received flit 4 from channel at input 4.
6 | network_0/router_level2_6 | Received flit 7 from channel at input 6.
6 | network_0/router_level2_7 | Received flit 2 from channel at input 2.
6 | network_0/router_level2_7 | Received flit 10 from channel at input 7.
6 | network_0/router_level2_0 | Adding flit 1 to VC 0 at input 1 (state: idle, empty).
6 | network_0/router_level2_0 | Using precomputed lookahead routing information for VC 0 at input 1 (front: 1).
6 | network_0/router_level2_0/buf_1/vc_0 | Changing state from idle to vc_alloc.
6 | network_0/router_level2_0 | Beginning VC allocation for VC 0 at input 1 (front: 1).
6 | network_0/router_level2_0 |   Requesting VC 0 at output 8 (in_pri: 0, out_pri: 0).
6 | network_0/router_level2_0 |   Requesting VC 1 at output 8 (in_pri: 0, out_pri: 0).
6 | network_0/router_level2_0 |   Requesting VC 2 at output 8 (in_pri: 0, out_pri: 0).
6 | network_0/router_level2_0 |   Requesting VC 3 at output 8 (in_pri: 0, out_pri: 0).
6 | network_0/router_level2_0/vc_allocator | Input requests = [ 4 -> [ 32@0 33@0 34@0 35@0 ]  ], output requests = [ 32 -> [ 4@0 ]  33 -> [ 4@0 ]  34 -> [ 4@0 ]  35 -> [ 4@0 ]  ].
6 | network_0/router_level2_0/vc_allocator | Input grants = [ 4 -> 32  ], output grants = [ 32 -> 4  ].
6 | network_0/router_level2_0 | Assigning VC 0 at output 8 to VC 0 at input 1.
6 | network_0/router_level2_0 | Completed VC allocation for VC 0 at input 1 (front: 1).
6 | network_0/router_level2_0 |   Acquiring assigned VC 0 at output 8.
6 | network_0/router_level2_0/buf_1/vc_0 | Changing state from vc_alloc to active.
6 | network_0/router_level2_1 | Adding flit 5 to VC 0 at input 5 (state: idle, empty).
6 | network_0/router_level2_1 | Using precomputed lookahead routing information for VC 0 at input 5 (front: 5).
6 | network_0/router_level2_1/buf_5/vc_0 | Changing state from idle to vc_alloc.
6 | network_0/router_level2_1 | Beginning VC allocation for VC 0 at input 5 (front: 5).
6 | network_0/router_level2_1 |   Requesting VC 0 at output 9 (in_pri: 0, out_pri: 0).
6 | network_0/router_level2_1 |   Requesting VC 1 at output 9 (in_pri: 0, out_pri: 0).
6 | network_0/router_level2_1 |   Requesting VC 2 at output 9 (in_pri: 0, out_pri: 0).
6 | network_0/router_level2_1 |   Requesting VC 3 at output 9 (in_pri: 0, out_pri: 0).
6 | network_0/router_level2_1/vc_allocator | Input requests = [ 20 -> [ 36@0 37@0 38@0 39@0 ]  28 -> [ 56@0 57@0 58@0 59@0 ]  ], output requests = [ 36 -> [ 20@0 ]  37 -> [ 20@0 ]  38 -> [ 20@0 ]  39 -> [ 20@0 ]  56 -> [ 28@0 ]  57 -> [ 28@0 ]  58 -> [ 28@0 ]  59 -> [ 28@0 ]  ].
6 | network_0/router_level2_1/vc_allocator | Input grants = [ 20 -> 36  28 -> 56  ], output grants = [ 36 -> 20  56 -> 28  ].
6 | network_0/router_level2_1 | Assigning VC 0 at output 9 to VC 0 at input 5.
6 | network_0/router_level2_1 | Completed VC allocation for VC 0 at input 5 (front: 5).
6 | network_0/router_level2_1 |   Acquiring assigned VC 0 at output 9.
6 | network_0/router_level2_1/buf_5/vc_0 | Changing state from vc_alloc to active.
6 | network_0/router_level2_3 | Adding flit 6 to VC 0 at input 5 (state: idle, empty).
6 | network_0/router_level2_3 | Using precomputed lookahead routing information for VC 0 at input 5 (front: 6).
6 | network_0/router_level2_3/buf_5/vc_0 | Changing state from idle to vc_alloc.
6 | network_0/router_level2_3 | Beginning VC allocation for VC 0 at input 5 (front: 6).
6 | network_0/router_level2_3 |   Requesting VC 0 at output 14 (in_pri: 0, out_pri: 0).
6 | network_0/router_level2_3 |   Requesting VC 1 at output 14 (in_pri: 0, out_pri: 0).
6 | network_0/router_level2_3 |   Requesting VC 2 at output 14 (in_pri: 0, out_pri: 0).
6 | network_0/router_level2_3 |   Requesting VC 3 at output 14 (in_pri: 0, out_pri: 0).
6 | network_0/router_level2_3/vc_allocator | Input requests = [ 20 -> [ 56@0 57@0 58@0 59@0 ]  ], output requests = [ 56 -> [ 20@0 ]  57 -> [ 20@0 ]  58 -> [ 20@0 ]  59 -> [ 20@0 ]  ].
6 | network_0/router_level2_3/vc_allocator | Input grants = [ 20 -> 56  ], output grants = [ 56 -> 20  ].
6 | network_0/router_level2_3 | Assigning VC 0 at output 14 to VC 0 at input 5.
6 | network_0/router_level2_3 | Completed VC allocation for VC 0 at input 5 (front: 6).
6 | network_0/router_level2_3 |   Acquiring assigned VC 0 at output 14.
6 | network_0/router_level2_3/buf_5/vc_0 | Changing state from vc_alloc to active.
6 | network_0/router_level2_4 | Adding flit 8 to VC 0 at input 6 (state: idle, empty).
6 | network_0/router_level2_4 | Using precomputed lookahead routing information for VC 0 at input 6 (front: 8).
6 | network_0/router_level2_4/buf_6/vc_0 | Changing state from idle to vc_alloc.
6 | network_0/router_level2_4 | Beginning VC allocation for VC 0 at input 6 (front: 8).
6 | network_0/router_level2_4 |   Requesting VC 0 at output 14 (in_pri: 0, out_pri: 0).
6 | network_0/router_level2_4 |   Requesting VC 1 at output 14 (in_pri: 0, out_pri: 0).
6 | network_0/router_level2_4 |   Requesting VC 2 at output 14 (in_pri: 0, out_pri: 0).
6 | network_0/router_level2_4 |   Requesting VC 3 at output 14 (in_pri: 0, out_pri: 0).
6 | network_0/router_level2_4/vc_allocator | Input requests = [ 24 -> [ 56@0 57@0 58@0 59@0 ]  ], output requests = [ 56 -> [ 24@0 ]  57 -> [ 24@0 ]  58 -> [ 24@0 ]  59 -> [ 24@0 ]  ].
6 | network_0/router_level2_4/vc_allocator | Input grants = [ 24 -> 56  ], output grants = [ 56 -> 24  ].
6 | network_0/router_level2_4 | Assigning VC 0 at output 14 to VC 0 at input 6.
6 | network_0/router_level2_4 | Completed VC allocation for VC 0 at input 6 (front: 8).
6 | network_0/router_level2_4 |   Acquiring assigned VC 0 at output 14.
6 | network_0/router_level2_4/buf_6/vc_0 | Changing state from vc_alloc to active.
6 | network_0/router_level2_5 | Adding flit 3 to VC 0 at input 3 (state: idle, empty).
6 | network_0/router_level2_5 | Using precomputed lookahead routing information for VC 0 at input 3 (front: 3).
6 | network_0/router_level2_5/buf_3/vc_0 | Changing state from idle to vc_alloc.
6 | network_0/router_level2_5 | Adding flit 4 to VC 0 at input 4 (state: idle, empty).
6 | network_0/router_level2_5 | Using precomputed lookahead routing information for VC 0 at input 4 (front: 4).
6 | network_0/router_level2_5/buf_4/vc_0 | Changing state from idle to vc_alloc.
6 | network_0/router_level2_5 | Beginning VC allocation for VC 0 at input 3 (front: 3).
6 | network_0/router_level2_5 |   Requesting VC 0 at output 10 (in_pri: 0, out_pri: 0).
6 | network_0/router_level2_5 |   Requesting VC 1 at output 10 (in_pri: 0, out_pri: 0).
6 | network_0/router_level2_5 |   Requesting VC 2 at output 10 (in_pri: 0, out_pri: 0).
6 | network_0/router_level2_5 |   Requesting VC 3 at output 10 (in_pri: 0, out_pri: 0).
6 | network_0/router_level2_5 | Beginning VC allocation for VC 0 at input 4 (front: 4).
6 | network_0/router_level2_5 |   Requesting VC 0 at output 10 (in_pri: 0, out_pri: 0).
6 | network_0/router_level2_5 |   Requesting VC 1 at output 10 (in_pri: 0, out_pri: 0).
6 | network_0/router_level2_5 |   Requesting VC 2 at output 10 (in_pri: 0, out_pri: 0).
6 | network_0/router_level2_5 |   Requesting VC 3 at output 10 (in_pri: 0, out_pri: 0).
6 | network_0/router_level2_5/vc_allocator | Input requests = [ 12 -> [ 40@0 41@0 42@0 43@0 ]  16 -> [ 40@0 41@0 42@0 43@0 ]  ], output requests = [ 40 -> [ 12@0 16@0 ]  41 -> [ 12@0 16@0 ]  42 -> [ 12@0 16@0 ]  43 -> [ 12@0 16@0 ]  ].
6 | network_0/router_level2_5/vc_allocator | Input grants = [ 12 -> 40  ], output grants = [ 40 -> 12  ].
6 | network_0/router_level2_5 | Assigning VC 0 at output 10 to VC 0 at input 3.
6 | network_0/router_level2_5 | VC allocation failed for VC 0 at input 4.
6 | network_0/router_level2_5 | Completed VC allocation for VC 0 at input 3 (front: 3).
6 | network_0/router_level2_5 |   Acquiring assigned VC 0 at output 10.
6 | network_0/router_level2_5/buf_3/vc_0 | Changing state from vc_alloc to active.
6 | network_0/router_level2_5 | Completed VC allocation for VC 0 at input 4 (front: 4).
6 | network_0/router_level2_5 |   No output VC allocated.
6 | network_0/router_level2_6 | Adding flit 7 to VC 0 at input 6 (state: idle, empty).
6 | network_0/router_level2_6 | Using precomputed lookahead routing information for VC 0 at input 6 (front: 7).
6 | network_0/router_level2_6/buf_6/vc_0 | Changing state from idle to vc_alloc.
6 | network_0/router_level2_6 | Beginning VC allocation for VC 0 at input 6 (front: 7).
6 | network_0/router_level2_6 |   Requesting VC 0 at output 8 (in_pri: 0, out_pri: 0).
6 | network_0/router_level2_6 |   Requesting VC 1 at output 8 (in_pri: 0, out_pri: 0).
6 | network_0/router_level2_6 |   Requesting VC 2 at output 8 (in_pri: 0, out_pri: 0).
6 | network_0/router_level2_6 |   Requesting VC 3 at output 8 (in_pri: 0, out_pri: 0).
6 | network_0/router_level2_6/vc_allocator | Input requests = [ 24 -> [ 32@0 33@0 34@0 35@0 ]  ], output requests = [ 32 -> [ 24@0 ]  33 -> [ 24@0 ]  34 -> [ 24@0 ]  35 -> [ 24@0 ]  ].
6 | network_0/router_level2_6/vc_allocator | Input grants = [ 24 -> 32  ], output grants = [ 32 -> 24  ].
6 | network_0/router_level2_6 | Assigning VC 0 at output 8 to VC 0 at input 6.
6 | network_0/router_level2_6 | Completed VC allocation for VC 0 at input 6 (front: 7).
6 | network_0/router_level2_6 |   Acquiring assigned VC 0 at output 8.
6 | network_0/router_level2_6/buf_6/vc_0 | Changing state from vc_alloc to active.
6 | network_0/router_level2_7 | Adding flit 2 to VC 0 at input 2 (state: idle, empty).
6 | network_0/router_level2_7 | Using precomputed lookahead routing information for VC 0 at input 2 (front: 2).
6 | network_0/router_level2_7/buf_2/vc_0 | Changing state from idle to vc_alloc.
6 | network_0/router_level2_7 | Adding flit 10 to VC 0 at input 7 (state: idle, empty).
6 | network_0/router_level2_7 | Using precomputed lookahead routing information for VC 0 at input 7 (front: 10).
6 | network_0/router_level2_7/buf_7/vc_0 | Changing state from idle to vc_alloc.
6 | network_0/router_level2_7 | Beginning VC allocation for VC 0 at input 2 (front: 2).
6 | network_0/router_level2_7 |   Requesting VC 0 at output 15 (in_pri: 0, out_pri: 0).
6 | network_0/router_level2_7 |   Requesting VC 1 at output 15 (in_pri: 0, out_pri: 0).
6 | network_0/router_level2_7 |   Requesting VC 2 at output 15 (in_pri: 0, out_pri: 0).
6 | network_0/router_level2_7 |   Requesting VC 3 at output 15 (in_pri: 0, out_pri: 0).
6 | network_0/router_level2_7 | Beginning VC allocation for VC 0 at input 7 (front: 10).
6 | network_0/router_level2_7 |   Requesting VC 0 at output 15 (in_pri: 0, out_pri: 0).
6 | network_0/router_level2_7 |   Requesting VC 1 at output 15 (in_pri: 0, out_pri: 0).
6 | network_0/router_level2_7 |   Requesting VC 2 at output 15 (in_pri: 0, out_pri: 0).
6 | network_0/router_level2_7 |   Requesting VC 3 at output 15 (in_pri: 0, out_pri: 0).
6 | network_0/router_level2_7/vc_allocator | Input requests = [ 8 -> [ 60@0 61@0 62@0 63@0 ]  28 -> [ 60@0 61@0 62@0 63@0 ]  ], output requests = [ 60 -> [ 8@0 28@0 ]  61 -> [ 8@0 28@0 ]  62 -> [ 8@0 28@0 ]  63 -> [ 8@0 28@0 ]  ].
6 | network_0/router_level2_7/vc_allocator | Input grants = [ 8 -> 60  ], output grants = [ 60 -> 8  ].
6 | network_0/router_level2_7 | Assigning VC 0 at output 15 to VC 0 at input 2.
6 | network_0/router_level2_7 | VC allocation failed for VC 0 at input 7.
6 | network_0/router_level2_7 | Completed VC allocation for VC 0 at input 2 (front: 2).
6 | network_0/router_level2_7 |   Acquiring assigned VC 0 at output 15.
6 | network_0/router_level2_7/buf_2/vc_0 | Changing state from vc_alloc to active.
6 | network_0/router_level2_7 | Completed VC allocation for VC 0 at input 7 (front: 10).
6 | network_0/router_level2_7 |   No output VC allocated.
6 | network_0/network_0_fchan_20532 | Completed channel traversal for flit 9.
7 | network_0/router_level2_4 | Received flit 9 from channel at input 6.
7 | network_0/router_level2_0 | Beginning switch allocation for VC 0 at input 1 (front: 1).
7 | network_0/router_level2_0 |   Requesting output 8.0 (non-spec, pri: 0).
7 | network_0/router_level2_0/sw_allocator | Input requests = [ 1 -> [ 8@0 ]  ], output requests = [ 8 -> [ 1@0 ]  ].
7 | network_0/router_level2_0/sw_allocator | Input grants = [ 1 -> 8  ], output grants = [ 8 -> 1  ].
7 | network_0/router_level2_0 | Assigning output 8.0 to VC 0 at input 1.0.
7 | network_0/router_level2_0 | Completed switch allocation for VC 0 at input 1 (front: 1).
7 | network_0/router_level2_0 |   Scheduling switch connection from input 1.0 to output 8.0.
7 | network_0/router_level2_0 | Updating lookahead routing information for flit 1.
7 | network_0/router_level2_1 | Beginning switch allocation for VC 0 at input 5 (front: 5).
7 | network_0/router_level2_1 |   Requesting output 9.0 (non-spec, pri: 0).
7 | network_0/router_level2_1/sw_allocator | Input requests = [ 5 -> [ 9@0 ]  7 -> [ 14@0 ]  ], output requests = [ 9 -> [ 5@0 ]  14 -> [ 7@0 ]  ].
7 | network_0/router_level2_1/sw_allocator | Input grants = [ 5 -> 9  7 -> 14  ], output grants = [ 9 -> 5  14 -> 7  ].
7 | network_0/router_level2_1 | Assigning output 9.0 to VC 0 at input 5.0.
7 | network_0/router_level2_1 | Completed switch allocation for VC 0 at input 5 (front: 5).
7 | network_0/router_level2_1 |   Scheduling switch connection from input 5.0 to output 9.0.
7 | network_0/router_level2_1 | Updating lookahead routing information for flit 5.
7 | network_0/router_level2_3 | Beginning switch allocation for VC 0 at input 5 (front: 6).
7 | network_0/router_level2_3 |   Requesting output 14.0 (non-spec, pri: 0).
7 | network_0/router_level2_3/sw_allocator | Input requests = [ 5 -> [ 14@0 ]  ], output requests = [ 14 -> [ 5@0 ]  ].
7 | network_0/router_level2_3/sw_allocator | Input grants = [ 5 -> 14  ], output grants = [ 14 -> 5  ].
7 | network_0/router_level2_3 | Assigning output 14.0 to VC 0 at input 5.0.
7 | network_0/router_level2_3 | Completed switch allocation for VC 0 at input 5 (front: 6).
7 | network_0/router_level2_3 |   Scheduling switch connection from input 5.0 to output 14.0.
7 | network_0/router_level2_3 | Updating lookahead routing information for flit 6.
7 | network_0/router_level2_4 | Adding flit 9 to VC 1 at input 6 (state: idle, empty).
7 | network_0/router_level2_4 | Using precomputed lookahead routing information for VC 1 at input 6 (front: 9).
7 | network_0/router_level2_4/buf_6/vc_1 | Changing state from idle to vc_alloc.
7 | network_0/router_level2_4 | Beginning VC allocation for VC 1 at input 6 (front: 9).
7 | network_0/router_level2_4 |   Requesting VC 0 at output 12 (in_pri: 0, out_pri: 0).
7 | network_0/router_level2_4 |   Requesting VC 1 at output 12 (in_pri: 0, out_pri: 0).
7 | network_0/router_level2_4 |   Requesting VC 2 at output 12 (in_pri: 0, out_pri: 0).
7 | network_0/router_level2_4 |   Requesting VC 3 at output 12 (in_pri: 0, out_pri: 0).
7 | network_0/router_level2_4/vc_allocator | Input requests = [ 0 -> [ 60@0 61@0 62@0 63@0 ]  4 -> [ 48@0 49@0 50@0 51@0 ]  8 -> [ 32@0 33@0 34@0 35@0 ]  20 -> [ 40@0 41@0 42@0 43@0 ]  25 -> [ 48@0 49@0 50@0 51@0 ]  ], output requests = [ 32 -> [ 8@0 ]  33 -> [ 8@0 ]  34 -> [ 8@0 ]  35 -> [ 8@0 ]  40 -> [ 20@0 ]  41 -> [ 20@0 ]  42 -> [ 20@0 ]  43 -> [ 20@0 ]  48 -> [ 4@0 25@0 ]  49 -> [ 4@0 25@0 ]  50 -> [ 4@0 25@0 ]  51 -> [ 4@0 25@0 ]  60 -> [ 0@0 ]  61 -> [ 0@0 ]  62 -> [ 0@0 ]  63 -> [ 0@0 ]  ].
7 | network_0/router_level2_4/vc_allocator | Input grants = [ 0 -> 60  4 -> 48  8 -> 32  20 -> 40  ], output grants = [ 32 -> 8  40 -> 20  48 -> 4  60 -> 0  ].
7 | network_0/router_level2_4 | VC allocation failed for VC 1 at input 6.
7 | network_0/router_level2_4 | Beginning switch allocation for VC 0 at input 6 (front: 8).
7 | network_0/router_level2_4 |   Requesting output 14.0 (non-spec, pri: 0).
7 | network_0/router_level2_4/sw_allocator | Input requests = [ 6 -> [ 14@0 ]  ], output requests = [ 14 -> [ 6@0 ]  ].
7 | network_0/router_level2_4/sw_allocator | Input grants = [ 6 -> 14  ], output grants = [ 14 -> 6  ].
7 | network_0/router_level2_4 | Assigning output 14.0 to VC 0 at input 6.0.
7 | network_0/router_level2_4 | Completed VC allocation for VC 1 at input 6 (front: 9).
7 | network_0/router_level2_4 |   No output VC allocated.
7 | network_0/router_level2_4 | Completed switch allocation for VC 0 at input 6 (front: 8).
7 | network_0/router_level2_4 |   Scheduling switch connection from input 6.0 to output 14.0.
7 | network_0/router_level2_4 | Updating lookahead routing information for flit 8.
7 | network_0/router_level2_5 | Beginning VC allocation for VC 0 at input 4 (front: 4).
7 | network_0/router_level2_5 |   VC 0 at output 10 is in use by VC 0 at input 3 (front flit: 3).
7 | network_0/router_level2_5 |   Requesting VC 1 at output 10 (in_pri: 0, out_pri: 0).
7 | network_0/router_level2_5 |   Requesting VC 2 at output 10 (in_pri: 0, out_pri: 0).
7 | network_0/router_level2_5 |   Requesting VC 3 at output 10 (in_pri: 0, out_pri: 0).
7 | network_0/router_level2_5/vc_allocator | Input requests = [ 0 -> [ 44@0 45@0 46@0 47@0 ]  16 -> [ 41@0 42@0 43@0 ]  24 -> [ 52@0 53@0 54@0 55@0 ]  ], output requests = [ 41 -> [ 16@0 ]  42 -> [ 16@0 ]  43 -> [ 16@0 ]  44 -> [ 0@0 ]  45 -> [ 0@0 ]  46 -> [ 0@0 ]  47 -> [ 0@0 ]  52 -> [ 24@0 ]  53 -> [ 24@0 ]  54 -> [ 24@0 ]  55 -> [ 24@0 ]  ].
7 | network_0/router_level2_5/vc_allocator | Input grants = [ 0 -> 44  16 -> 41  24 -> 52  ], output grants = [ 41 -> 16  44 -> 0  52 -> 24  ].
7 | network_0/router_level2_5 | Assigning VC 1 at output 10 to VC 0 at input 4.
7 | network_0/router_level2_5 | Beginning switch allocation for VC 0 at input 3 (front: 3).
7 | network_0/router_level2_5 |   Requesting output 10.0 (non-spec, pri: 0).
7 | network_0/router_level2_5/sw_allocator | Input requests = [ 3 -> [ 10@0 ]  ], output requests = [ 10 -> [ 3@0 ]  ].
7 | network_0/router_level2_5/sw_allocator | Input grants = [ 3 -> 10  ], output grants = [ 10 -> 3  ].
7 | network_0/router_level2_5 | Assigning output 10.0 to VC 0 at input 3.0.
7 | network_0/router_level2_5 | Completed VC allocation for VC 0 at input 4 (front: 4).
7 | network_0/router_level2_5 |   Acquiring assigned VC 1 at output 10.
7 | network_0/router_level2_5/buf_4/vc_0 | Changing state from vc_alloc to active.
7 | network_0/router_level2_5 | Completed switch allocation for VC 0 at input 3 (front: 3).
7 | network_0/router_level2_5 |   Scheduling switch connection from input 3.0 to output 10.0.
7 | network_0/router_level2_5 | Updating lookahead routing information for flit 3.
7 | network_0/router_level2_6 | Beginning switch allocation for VC 0 at input 6 (front: 7).
7 | network_0/router_level2_6 |   Requesting output 8.0 (non-spec, pri: 0).
7 | network_0/router_level2_6/sw_allocator | Input requests = [ 6 -> [ 8@0 ]  ], output requests = [ 8 -> [ 6@0 ]  ].
7 | network_0/router_level2_6/sw_allocator | Input grants = [ 6 -> 8  ], output grants = [ 8 -> 6  ].
7 | network_0/router_level2_6 | Assigning output 8.0 to VC 0 at input 6.0.
7 | network_0/router_level2_6 | Completed switch allocation for VC 0 at input 6 (front: 7).
7 | network_0/router_level2_6 |   Scheduling switch connection from input 6.0 to output 8.0.
7 | network_0/router_level2_6 | Updating lookahead routing information for flit 7.
7 | network_0/router_level2_7 | Beginning VC allocation for VC 0 at input 7 (front: 10).
7 | network_0/router_level2_7 |   VC 0 at output 15 is in use by VC 0 at input 2 (front flit: 2).
7 | network_0/router_level2_7 |   Requesting VC 1 at output 15 (in_pri: 0, out_pri: 0).
7 | network_0/router_level2_7 |   Requesting VC 2 at output 15 (in_pri: 0, out_pri: 0).
7 | network_0/router_level2_7 |   Requesting VC 3 at output 15 (in_pri: 0, out_pri: 0).
7 | network_0/router_level2_7/vc_allocator | Input requests = [ 24 -> [ 56@0 57@0 58@0 59@0 ]  28 -> [ 61@0 62@0 63@0 ]  29 -> [ 40@0 41@0 42@0 43@0 ]  ], output requests = [ 40 -> [ 29@0 ]  41 -> [ 29@0 ]  42 -> [ 29@0 ]  43 -> [ 29@0 ]  56 -> [ 24@0 ]  57 -> [ 24@0 ]  58 -> [ 24@0 ]  59 -> [ 24@0 ]  61 -> [ 28@0 ]  62 -> [ 28@0 ]  63 -> [ 28@0 ]  ].
7 | network_0/router_level2_7/vc_allocator | Input grants = [ 24 -> 56  28 -> 61  29 -> 40  ], output grants = [ 40 -> 29  56 -> 24  61 -> 28  ].
7 | network_0/router_level2_7 | Assigning VC 1 at output 15 to VC 0 at input 7.
7 | network_0/router_level2_7 | Beginning switch allocation for VC 0 at input 2 (front: 2).
7 | network_0/router_level2_7 |   Requesting output 15.0 (non-spec, pri: 0).
7 | network_0/router_level2_7/sw_allocator | Input requests = [ 2 -> [ 15@0 ]  ], output requests = [ 15 -> [ 2@0 ]  ].
7 | network_0/router_level2_7/sw_allocator | Input grants = [ 2 -> 15  ], output grants = [ 15 -> 2  ].
7 | network_0/router_level2_7 | Assigning output 15.0 to VC 0 at input 2.0.
7 | network_0/router_level2_7 | Completed VC allocation for VC 0 at input 7 (front: 10).
7 | network_0/router_level2_7 |   Acquiring assigned VC 1 at output 15.
7 | network_0/router_level2_7/buf_7/vc_0 | Changing state from vc_alloc to active.
7 | network_0/router_level2_7 | Completed switch allocation for VC 0 at input 2 (front: 2).
7 | network_0/router_level2_7 |   Scheduling switch connection from input 2.0 to output 15.0.
7 | network_0/router_level2_7 | Updating lookahead routing information for flit 2.
8 | network_0/router_level2_0 | Beginning crossbar traversal for flit 1 from input 1.0 to output 8.0.
8 | network_0/router_level2_0 | Completed crossbar traversal for flit 1 from input 1.0 to output 8.0.
8 | network_0/router_level2_0 | Buffering flit 1 at output 8.
8 | network_0/router_level2_1 | Beginning crossbar traversal for flit 5 from input 5.0 to output 9.0.
8 | network_0/router_level2_1 | Completed crossbar traversal for flit 5 from input 5.0 to output 9.0.
8 | network_0/router_level2_1 | Buffering flit 5 at output 9.
8 | network_0/router_level2_3 | Beginning crossbar traversal for flit 6 from input 5.0 to output 14.0.
8 | network_0/router_level2_3 | Completed crossbar traversal for flit 6 from input 5.0 to output 14.0.
8 | network_0/router_level2_3 | Buffering flit 6 at output 14.
8 | network_0/router_level2_4 | Beginning VC allocation for VC 1 at input 6 (front: 9).
8 | network_0/router_level2_4 |   VC 0 at output 12 is in use by VC 0 at input 1 (front flit: 956).
8 | network_0/router_level2_4 |   Requesting VC 1 at output 12 (in_pri: 0, out_pri: 0).
8 | network_0/router_level2_4 |   Requesting VC 2 at output 12 (in_pri: 0, out_pri: 0).
8 | network_0/router_level2_4 |   Requesting VC 3 at output 12 (in_pri: 0, out_pri: 0).
8 | network_0/router_level2_4/vc_allocator | Input requests = [ 25 -> [ 49@0 50@0 51@0 ]  ], output requests = [ 49 -> [ 25@0 ]  50 -> [ 25@0 ]  51 -> [ 25@0 ]  ].
8 | network_0/router_level2_4/vc_allocator | Input grants = [ 25 -> 49  ], output grants = [ 49 -> 25  ].
8 | network_0/router_level2_4 | Assigning VC 1 at output 12 to VC 1 at input 6.
8 | network_0/router_level2_4 | Beginning crossbar traversal for flit 8 from input 6.0 to output 14.0.
8 | network_0/router_level2_4 | Completed VC allocation for VC 1 at input 6 (front: 9).
8 | network_0/router_level2_4 |   Acquiring assigned VC 1 at output 12.
8 | network_0/router_level2_4/buf_6/vc_1 | Changing state from vc_alloc to active.
8 | network_0/router_level2_4 | Completed crossbar traversal for flit 8 from input 6.0 to output 14.0.
8 | network_0/router_level2_4 | Buffering flit 8 at output 14.
8 | network_0/router_level2_5 | Beginning switch allocation for VC 0 at input 4 (front: 4).
8 | network_0/router_level2_5 |   Requesting output 10.0 (non-spec, pri: 0).
8 | network_0/router_level2_5/sw_allocator | Input requests = [ 0 -> [ 11@0 ]  4 -> [ 10@0 ]  6 -> [ 13@0 ]  ], output requests = [ 10 -> [ 4@0 ]  11 -> [ 0@0 ]  13 -> [ 6@0 ]  ].
8 | network_0/router_level2_5/sw_allocator | Input grants = [ 0 -> 11  4 -> 10  6 -> 13  ], output grants = [ 10 -> 4  11 -> 0  13 -> 6  ].
8 | network_0/router_level2_5 | Assigning output 10.0 to VC 0 at input 4.0.
8 | network_0/router_level2_5 | Beginning crossbar traversal for flit 3 from input 3.0 to output 10.0.
8 | network_0/router_level2_5 | Completed switch allocation for VC 0 at input 4 (front: 4).
8 | network_0/router_level2_5 |   Scheduling switch connection from input 4.0 to output 10.0.
8 | network_0/router_level2_5 | Updating lookahead routing information for flit 4.
8 | network_0/router_level2_5 | Completed crossbar traversal for flit 3 from input 3.0 to output 10.0.
8 | network_0/router_level2_5 | Buffering flit 3 at output 10.
8 | network_0/router_level2_6 | Beginning crossbar traversal for flit 7 from input 6.0 to output 8.0.
8 | network_0/router_level2_6 | Completed crossbar traversal for flit 7 from input 6.0 to output 8.0.
8 | network_0/router_level2_6 | Buffering flit 7 at output 8.
8 | network_0/router_level2_7 | Beginning switch allocation for VC 0 at input 7 (front: 10).
8 | network_0/router_level2_7 |   Requesting output 15.0 (non-spec, pri: 0).
8 | network_0/router_level2_7/sw_allocator | Input requests = [ 6 -> [ 14@0 ]  7 -> [ 10@0 15@0 ]  ], output requests = [ 10 -> [ 7@0 ]  14 -> [ 6@0 ]  15 -> [ 7@0 ]  ].
8 | network_0/router_level2_7/sw_allocator | Input grants = [ 6 -> 14  7 -> 10  ], output grants = [ 10 -> 7  14 -> 6  ].
8 | network_0/router_level2_7 | Switch allocation failed for VC 0 at input 7: Granted to VC 1.
8 | network_0/router_level2_7 | Beginning crossbar traversal for flit 2 from input 2.0 to output 15.0.
8 | network_0/router_level2_7 | Completed switch allocation for VC 0 at input 7 (front: 10).
8 | network_0/router_level2_7 |   No output port allocated.
8 | network_0/router_level2_7 | Completed crossbar traversal for flit 2 from input 2.0 to output 15.0.
8 | network_0/router_level2_7 | Buffering flit 2 at output 15.
8 | network_0/router_level2_0 | Sending flit 1 to channel at output 8.
8 | network_0/router_level2_1 | Sending flit 5 to channel at output 9.
8 | network_0/router_level2_3 | Sending flit 6 to channel at output 14.
8 | network_0/router_level2_4 | Sending flit 8 to channel at output 14.
8 | network_0/router_level2_5 | Sending flit 3 to channel at output 10.
8 | network_0/router_level2_6 | Sending flit 7 to channel at output 8.
8 | network_0/router_level2_7 | Sending flit 2 to channel at output 15.
9 | network_0/network_0_fchan_12288 | Beginning channel traversal for flit 1 with delay 1.
9 | network_0/network_0_fchan_12297 | Beginning channel traversal for flit 5 with delay 1.
9 | network_0/network_0_fchan_12318 | Beginning channel traversal for flit 6 with delay 1.
9 | network_0/network_0_fchan_12326 | Beginning channel traversal for flit 8 with delay 1.
9 | network_0/network_0_fchan_12330 | Beginning channel traversal for flit 3 with delay 1.
9 | network_0/network_0_fchan_12336 | Beginning channel traversal for flit 7 with delay 1.
9 | network_0/network_0_fchan_12351 | Beginning channel traversal for flit 2 with delay 1.
9 | network_0/router_level2_4 | Beginning switch allocation for VC 1 at input 6 (front: 9).
9 | network_0/router_level2_4 |   Requesting output 12.0 (non-spec, pri: 0).
9 | network_0/router_level2_4/sw_allocator | Input requests = [ 6 -> [ 12@0 ]  ], output requests = [ 12 -> [ 6@0 ]  ].
9 | network_0/router_level2_4/sw_allocator | Input grants = [ 6 -> 12  ], output grants = [ 12 -> 6  ].
9 | network_0/router_level2_4 | Assigning output 12.0 to VC 1 at input 6.0.
9 | network_0/router_level2_4 | Completed switch allocation for VC 1 at input 6 (front: 9).
9 | network_0/router_level2_4 |   Scheduling switch connection from input 6.0 to output 12.0.
9 | network_0/router_level2_4 | Updating lookahead routing information for flit 9.
9 | network_0/router_level2_5 | Beginning crossbar traversal for flit 4 from input 4.0 to output 10.0.
9 | network_0/router_level2_5 | Completed crossbar traversal for flit 4 from input 4.0 to output 10.0.
9 | network_0/router_level2_5 | Buffering flit 4 at output 10.
9 | network_0/router_level2_7 | Beginning switch allocation for VC 0 at input 7 (front: 10).
9 | network_0/router_level2_7 |   Requesting output 15.0 (non-spec, pri: 0).
9 | network_0/router_level2_7/sw_allocator | Input requests = [ 0 -> [ 14@0 ]  1 -> [ 13@0 ]  7 -> [ 15@0 ]  ], output requests = [ 13 -> [ 1@0 ]  14 -> [ 0@0 ]  15 -> [ 7@0 ]  ].
9 | network_0/router_level2_7/sw_allocator | Input grants = [ 0 -> 14  1 -> 13  7 -> 15  ], output grants = [ 13 -> 1  14 -> 0  15 -> 7  ].
9 | network_0/router_level2_7 | Assigning output 15.0 to VC 0 at input 7.0.
9 | network_0/router_level2_7 | Completed switch allocation for VC 0 at input 7 (front: 10).
9 | network_0/router_level2_7 |   Scheduling switch connection from input 7.0 to output 15.0.
9 | network_0/router_level2_7 | Updating lookahead routing information for flit 10.
9 | network_0/network_0_fchan_12288 | Completed channel traversal for flit 1.
9 | network_0/network_0_fchan_12297 | Completed channel traversal for flit 5.
9 | network_0/network_0_fchan_12318 | Completed channel traversal for flit 6.
9 | network_0/network_0_fchan_12326 | Completed channel traversal for flit 8.
9 | network_0/network_0_fchan_12330 | Completed channel traversal for flit 3.
9 | network_0/network_0_fchan_12336 | Completed channel traversal for flit 7.
9 | network_0/network_0_fchan_12351 | Completed channel traversal for flit 2.
9 | network_0/router_level2_5 | Sending flit 4 to channel at output 10.
10 | network_0/network_0_fchan_12330 | Beginning channel traversal for flit 4 with delay 1.
10 | network_0/router_level1_0 | Received flit 1 from channel at input 0.
10 | network_0/router_level1_6 | Received flit 7 from channel at input 0.
10 | network_0/router_level1_9 | Received flit 5 from channel at input 0.
10 | network_0/router_level1_21 | Received flit 3 from channel at input 0.
10 | network_0/router_level1_51 | Received flit 6 from channel at input 0.
10 | network_0/router_level1_52 | Received flit 8 from channel at input 0.
10 | network_0/router_level1_63 | Received flit 2 from channel at input 0.
10 | network_0/router_level1_0 | Adding flit 1 to VC 0 at input 0 (state: idle, empty).
10 | network_0/router_level1_0 | Using precomputed lookahead routing information for VC 0 at input 0 (front: 1).
10 | network_0/router_level1_0/buf_0/vc_0 | Changing state from idle to vc_alloc.
10 | network_0/router_level1_0 | Beginning VC allocation for VC 0 at input 0 (front: 1).
10 | network_0/router_level1_0 |   Requesting VC 0 at output 9 (in_pri: 0, out_pri: 0).
10 | network_0/router_level1_0 |   Requesting VC 1 at output 9 (in_pri: 0, out_pri: 0).
10 | network_0/router_level1_0 |   Requesting VC 2 at output 9 (in_pri: 0, out_pri: 0).
10 | network_0/router_level1_0 |   Requesting VC 3 at output 9 (in_pri: 0, out_pri: 0).
10 | network_0/router_level1_0/vc_allocator | Input requests = [ 0 -> [ 36@0 37@0 38@0 39@0 ]  4 -> [ 40@0 41@0 42@0 43@0 ]  16 -> [ 44@0 45@0 46@0 47@0 ]  ], output requests = [ 36 -> [ 0@0 ]  37 -> [ 0@0 ]  38 -> [ 0@0 ]  39 -> [ 0@0 ]  40 -> [ 4@0 ]  41 -> [ 4@0 ]  42 -> [ 4@0 ]  43 -> [ 4@0 ]  44 -> [ 16@0 ]  45 -> [ 16@0 ]  46 -> [ 16@0 ]  47 -> [ 16@0 ]  ].
10 | network_0/router_level1_0/vc_allocator | Input grants = [ 0 -> 36  4 -> 40  16 -> 44  ], output grants = [ 36 -> 0  40 -> 4  44 -> 16  ].
10 | network_0/router_level1_0 | Assigning VC 0 at output 9 to VC 0 at input 0.
10 | network_0/router_level1_0 | Completed VC allocation for VC 0 at input 0 (front: 1).
10 | network_0/router_level1_0 |   Acquiring assigned VC 0 at output 9.
10 | network_0/router_level1_0/buf_0/vc_0 | Changing state from vc_alloc to active.
10 | network_0/router_level1_6 | Adding flit 7 to VC 0 at input 0 (state: idle, empty).
10 | network_0/router_level1_6 | Using precomputed lookahead routing information for VC 0 at input 0 (front: 7).
10 | network_0/router_level1_6/buf_0/vc_0 | Changing state from idle to vc_alloc.
10 | network_0/router_level1_6 | Beginning VC allocation for VC 0 at input 0 (front: 7).
10 | network_0/router_level1_6 |   Requesting VC 0 at output 9 (in_pri: 0, out_pri: 0).
10 | network_0/router_level1_6 |   Requesting VC 1 at output 9 (in_pri: 0, out_pri: 0).
10 | network_0/router_level1_6 |   Requesting VC 2 at output 9 (in_pri: 0, out_pri: 0).
10 | network_0/router_level1_6 |   Requesting VC 3 at output 9 (in_pri: 0, out_pri: 0).
10 | network_0/router_level1_6/vc_allocator | Input requests = [ 0 -> [ 36@0 37@0 38@0 39@0 ]  8 -> [ 44@0 45@0 46@0 47@0 ]  12 -> [ 32@0 33@0 34@0 35@0 ]  ], output requests = [ 32 -> [ 12@0 ]  33 -> [ 12@0 ]  34 -> [ 12@0 ]  35 -> [ 12@0 ]  36 -> [ 0@0 ]  37 -> [ 0@0 ]  38 -> [ 0@0 ]  39 -> [ 0@0 ]  44 -> [ 8@0 ]  45 -> [ 8@0 ]  46 -> [ 8@0 ]  47 -> [ 8@0 ]  ].
10 | network_0/router_level1_6/vc_allocator | Input grants = [ 0 -> 36  8 -> 44  12 -> 32  ], output grants = [ 32 -> 12  36 -> 0  44 -> 8  ].
10 | network_0/router_level1_6 | Assigning VC 0 at output 9 to VC 0 at input 0.
10 | network_0/router_level1_6 | Completed VC allocation for VC 0 at input 0 (front: 7).
10 | network_0/router_level1_6 |   Acquiring assigned VC 0 at output 9.
10 | network_0/router_level1_6/buf_0/vc_0 | Changing state from vc_alloc to active.
10 | network_0/router_level1_9 | Adding flit 5 to VC 0 at input 0 (state: idle, empty).
10 | network_0/router_level1_9 | Using precomputed lookahead routing information for VC 0 at input 0 (front: 5).
10 | network_0/router_level1_9/buf_0/vc_0 | Changing state from idle to vc_alloc.
10 | network_0/router_level1_9 | Beginning VC allocation for VC 0 at input 0 (front: 5).
10 | network_0/router_level1_9 |   Requesting VC 0 at output 10 (in_pri: 0, out_pri: 0).
10 | network_0/router_level1_9 |   Requesting VC 1 at output 10 (in_pri: 0, out_pri: 0).
10 | network_0/router_level1_9 |   Requesting VC 2 at output 10 (in_pri: 0, out_pri: 0).
10 | network_0/router_level1_9 |   Requesting VC 3 at output 10 (in_pri: 0, out_pri: 0).
10 | network_0/router_level1_9/vc_allocator | Input requests = [ 0 -> [ 40@0 41@0 42@0 43@0 ]  ], output requests = [ 40 -> [ 0@0 ]  41 -> [ 0@0 ]  42 -> [ 0@0 ]  43 -> [ 0@0 ]  ].
10 | network_0/router_level1_9/vc_allocator | Input grants = [ 0 -> 40  ], output grants = [ 40 -> 0  ].
10 | network_0/router_level1_9 | Assigning VC 0 at output 10 to VC 0 at input 0.
10 | network_0/router_level1_9 | Completed VC allocation for VC 0 at input 0 (front: 5).
10 | network_0/router_level1_9 |   Acquiring assigned VC 0 at output 10.
10 | network_0/router_level1_9/buf_0/vc_0 | Changing state from vc_alloc to active.
10 | network_0/router_level1_21 | Adding flit 3 to VC 0 at input 0 (state: idle, empty).
10 | network_0/router_level1_21 | Using precomputed lookahead routing information for VC 0 at input 0 (front: 3).
10 | network_0/router_level1_21/buf_0/vc_0 | Changing state from idle to vc_alloc.
10 | network_0/router_level1_21 | Beginning VC allocation for VC 0 at input 0 (front: 3).
10 | network_0/router_level1_21 |   Requesting VC 0 at output 11 (in_pri: 0, out_pri: 0).
10 | network_0/router_level1_21 |   Requesting VC 1 at output 11 (in_pri: 0, out_pri: 0).
10 | network_0/router_level1_21 |   Requesting VC 2 at output 11 (in_pri: 0, out_pri: 0).
10 | network_0/router_level1_21 |   Requesting VC 3 at output 11 (in_pri: 0, out_pri: 0).
10 | network_0/router_level1_21/vc_allocator | Input requests = [ 0 -> [ 44@0 45@0 46@0 47@0 ]  24 -> [ 40@0 41@0 42@0 43@0 ]  28 -> [ 32@0 33@0 34@0 35@0 ]  ], output requests = [ 32 -> [ 28@0 ]  33 -> [ 28@0 ]  34 -> [ 28@0 ]  35 -> [ 28@0 ]  40 -> [ 24@0 ]  41 -> [ 24@0 ]  42 -> [ 24@0 ]  43 -> [ 24@0 ]  44 -> [ 0@0 ]  45 -> [ 0@0 ]  46 -> [ 0@0 ]  47 -> [ 0@0 ]  ].
10 | network_0/router_level1_21/vc_allocator | Input grants = [ 0 -> 44  24 -> 40  28 -> 32  ], output grants = [ 32 -> 28  40 -> 24  44 -> 0  ].
10 | network_0/router_level1_21 | Assigning VC 0 at output 11 to VC 0 at input 0.
10 | network_0/router_level1_21 | Completed VC allocation for VC 0 at input 0 (front: 3).
10 | network_0/router_level1_21 |   Acquiring assigned VC 0 at output 11.
10 | network_0/router_level1_21/buf_0/vc_0 | Changing state from vc_alloc to active.
10 | network_0/router_level1_51 | Adding flit 6 to VC 0 at input 0 (state: idle, empty).
10 | network_0/router_level1_51 | Using precomputed lookahead routing information for VC 0 at input 0 (front: 6).
10 | network_0/router_level1_51/buf_0/vc_0 | Changing state from idle to vc_alloc.
10 | network_0/router_level1_51 | Beginning VC allocation for VC 0 at input 0 (front: 6).
10 | network_0/router_level1_51 |   Requesting VC 0 at output 9 (in_pri: 0, out_pri: 0).
10 | network_0/router_level1_51 |   Requesting VC 1 at output 9 (in_pri: 0, out_pri: 0).
10 | network_0/router_level1_51 |   Requesting VC 2 at output 9 (in_pri: 0, out_pri: 0).
10 | network_0/router_level1_51 |   Requesting VC 3 at output 9 (in_pri: 0, out_pri: 0).
10 | network_0/router_level1_51/vc_allocator | Input requests = [ 0 -> [ 36@0 37@0 38@0 39@0 ]  20 -> [ 36@0 37@0 38@0 39@0 ]  ], output requests = [ 36 -> [ 0@0 20@0 ]  37 -> [ 0@0 20@0 ]  38 -> [ 0@0 20@0 ]  39 -> [ 0@0 20@0 ]  ].
10 | network_0/router_level1_51/vc_allocator | Input grants = [ 0 -> 36  ], output grants = [ 36 -> 0  ].
10 | network_0/router_level1_51 | Assigning VC 0 at output 9 to VC 0 at input 0.
10 | network_0/router_level1_51 | Completed VC allocation for VC 0 at input 0 (front: 6).
10 | network_0/router_level1_51 |   Acquiring assigned VC 0 at output 9.
10 | network_0/router_level1_51/buf_0/vc_0 | Changing state from vc_alloc to active.
10 | network_0/router_level1_52 | Adding flit 8 to VC 0 at input 0 (state: idle, empty).
10 | network_0/router_level1_52 | Using precomputed lookahead routing information for VC 0 at input 0 (front: 8).
10 | network_0/router_level1_52/buf_0/vc_0 | Changing state from idle to vc_alloc.
10 | network_0/router_level1_52 | Beginning VC allocation for VC 0 at input 0 (front: 8).
10 | network_0/router_level1_52 |   Requesting VC 0 at output 9 (in_pri: 0, out_pri: 0).
10 | network_0/router_level1_52 |   Requesting VC 1 at output 9 (in_pri: 0, out_pri: 0).
10 | network_0/router_level1_52 |   Requesting VC 2 at output 9 (in_pri: 0, out_pri: 0).
10 | network_0/router_level1_52 |   Requesting VC 3 at output 9 (in_pri: 0, out_pri: 0).
10 | network_0/router_level1_52/vc_allocator | Input requests = [ 0 -> [ 36@0 37@0 38@0 39@0 ]  12 -> [ 32@0 33@0 34@0 35@0 ]  20 -> [ 44@0 45@0 46@0 47@0 ]  ], output requests = [ 32 -> [ 12@0 ]  33 -> [ 12@0 ]  34 -> [ 12@0 ]  35 -> [ 12@0 ]  36 -> [ 0@0 ]  37 -> [ 0@0 ]  38 -> [ 0@0 ]  39 -> [ 0@0 ]  44 -> [ 20@0 ]  45 -> [ 20@0 ]  46 -> [ 20@0 ]  47 -> [ 20@0 ]  ].
10 | network_0/router_level1_52/vc_allocator | Input grants = [ 0 -> 36  12 -> 32  20 -> 44  ], output grants = [ 32 -> 12  36 -> 0  44 -> 20  ].
10 | network_0/router_level1_52 | Assigning VC 0 at output 9 to VC 0 at input 0.
10 | network_0/router_level1_52 | Completed VC allocation for VC 0 at input 0 (front: 8).
10 | network_0/router_level1_52 |   Acquiring assigned VC 0 at output 9.
10 | network_0/router_level1_52/buf_0/vc_0 | Changing state from vc_alloc to active.
10 | network_0/router_level1_63 | Adding flit 2 to VC 0 at input 0 (state: idle, empty).
10 | network_0/router_level1_63 | Using precomputed lookahead routing information for VC 0 at input 0 (front: 2).
10 | network_0/router_level1_63/buf_0/vc_0 | Changing state from idle to vc_alloc.
10 | network_0/router_level1_63 | Beginning VC allocation for VC 0 at input 0 (front: 2).
10 | network_0/router_level1_63 |   Requesting VC 0 at output 8 (in_pri: 0, out_pri: 0).
10 | network_0/router_level1_63 |   Requesting VC 1 at output 8 (in_pri: 0, out_pri: 0).
10 | network_0/router_level1_63 |   Requesting VC 2 at output 8 (in_pri: 0, out_pri: 0).
10 | network_0/router_level1_63 |   Requesting VC 3 at output 8 (in_pri: 0, out_pri: 0).
10 | network_0/router_level1_63/vc_allocator | Input requests = [ 0 -> [ 32@0 33@0 34@0 35@0 ]  12 -> [ 44@0 45@0 46@0 47@0 ]  20 -> [ 32@0 33@0 34@0 35@0 ]  ], output requests = [ 32 -> [ 0@0 20@0 ]  33 -> [ 0@0 20@0 ]  34 -> [ 0@0 20@0 ]  35 -> [ 0@0 20@0 ]  44 -> [ 12@0 ]  45 -> [ 12@0 ]  46 -> [ 12@0 ]  47 -> [ 12@0 ]  ].
10 | network_0/router_level1_63/vc_allocator | Input grants = [ 0 -> 32  12 -> 44  ], output grants = [ 32 -> 0  44 -> 12  ].
10 | network_0/router_level1_63 | Assigning VC 0 at output 8 to VC 0 at input 0.
10 | network_0/router_level1_63 | Completed VC allocation for VC 0 at input 0 (front: 2).
10 | network_0/router_level1_63 |   Acquiring assigned VC 0 at output 8.
10 | network_0/router_level1_63/buf_0/vc_0 | Changing state from vc_alloc to active.
10 | network_0/router_level2_4 | Beginning crossbar traversal for flit 9 from input 6.0 to output 12.0.
10 | network_0/router_level2_4 | Completed crossbar traversal for flit 9 from input 6.0 to output 12.0.
10 | network_0/router_level2_4 | Buffering flit 9 at output 12.
10 | network_0/router_level2_7 | Beginning crossbar traversal for flit 10 from input 7.0 to output 15.0.
10 | network_0/router_level2_7 | Completed crossbar traversal for flit 10 from input 7.0 to output 15.0.
10 | network_0/router_level2_7 | Buffering flit 10 at output 15.
10 | network_0/network_0_fchan_12330 | Completed channel traversal for flit 4.
10 | network_0/router_level2_4 | Sending flit 9 to channel at output 12.
10 | network_0/router_level2_7 | Sending flit 10 to channel at output 15.
11 | network_0/network_0_fchan_12324 | Beginning channel traversal for flit 9 with delay 1.
11 | network_0/network_0_fchan_12351 | Beginning channel traversal for flit 10 with delay 1.
11 | network_0/router_level1_21 | Received flit 4 from channel at input 0.
11 | network_0/router_level1_0 | Beginning switch allocation for VC 0 at input 0 (front: 1).
11 | network_0/router_level1_0 |   Requesting output 9.0 (non-spec, pri: 0).
11 | network_0/router_level1_0/sw_allocator | Input requests = [ 0 -> [ 9@0 ]  1 -> [ 10@0 ]  4 -> [ 11@0 ]  ], output requests = [ 9 -> [ 0@0 ]  10 -> [ 1@0 ]  11 -> [ 4@0 ]  ].
11 | network_0/router_level1_0/sw_allocator | Input grants = [ 0 -> 9  1 -> 10  4 -> 11  ], output grants = [ 9 -> 0  10 -> 1  11 -> 4  ].
11 | network_0/router_level1_0 | Assigning output 9.0 to VC 0 at input 0.0.
11 | network_0/router_level1_0 | Completed switch allocation for VC 0 at input 0 (front: 1).
11 | network_0/router_level1_0 |   Scheduling switch connection from input 0.0 to output 9.0.
11 | network_0/router_level1_0 | Updating lookahead routing information for flit 1.
11 | network_0/router_level1_6 | Beginning switch allocation for VC 0 at input 0 (front: 7).
11 | network_0/router_level1_6 |   Requesting output 9.0 (non-spec, pri: 0).
11 | network_0/router_level1_6/sw_allocator | Input requests = [ 0 -> [ 9@0 ]  2 -> [ 11@0 ]  3 -> [ 8@0 ]  ], output requests = [ 8 -> [ 3@0 ]  9 -> [ 0@0 ]  11 -> [ 2@0 ]  ].
11 | network_0/router_level1_6/sw_allocator | Input grants = [ 0 -> 9  2 -> 11  3 -> 8  ], output grants = [ 8 -> 3  9 -> 0  11 -> 2  ].
11 | network_0/router_level1_6 | Assigning output 9.0 to VC 0 at input 0.0.
11 | network_0/router_level1_6 | Completed switch allocation for VC 0 at input 0 (front: 7).
11 | network_0/router_level1_6 |   Scheduling switch connection from input 0.0 to output 9.0.
11 | network_0/router_level1_6 | Updating lookahead routing information for flit 7.
11 | network_0/router_level1_9 | Beginning switch allocation for VC 0 at input 0 (front: 5).
11 | network_0/router_level1_9 |   Requesting output 10.0 (non-spec, pri: 0).
11 | network_0/router_level1_9/sw_allocator | Input requests = [ 0 -> [ 10@0 ]  ], output requests = [ 10 -> [ 0@0 ]  ].
11 | network_0/router_level1_9/sw_allocator | Input grants = [ 0 -> 10  ], output grants = [ 10 -> 0  ].
11 | network_0/router_level1_9 | Assigning output 10.0 to VC 0 at input 0.0.
11 | network_0/router_level1_9 | Completed switch allocation for VC 0 at input 0 (front: 5).
11 | network_0/router_level1_9 |   Scheduling switch connection from input 0.0 to output 10.0.
11 | network_0/router_level1_9 | Updating lookahead routing information for flit 5.
11 | network_0/router_level1_21 | Adding flit 4 to VC 1 at input 0 (state: idle, empty).
11 | network_0/router_level1_21 | Using precomputed lookahead routing information for VC 1 at input 0 (front: 4).
11 | network_0/router_level1_21/buf_0/vc_1 | Changing state from idle to vc_alloc.
11 | network_0/router_level1_21 | Beginning VC allocation for VC 1 at input 0 (front: 4).
11 | network_0/router_level1_21 |   VC 0 at output 10 is in use by VC 0 at input 6 (front flit: 102).
11 | network_0/router_level1_21 |   Requesting VC 1 at output 10 (in_pri: 0, out_pri: 0).
11 | network_0/router_level1_21 |   Requesting VC 2 at output 10 (in_pri: 0, out_pri: 0).
11 | network_0/router_level1_21 |   Requesting VC 3 at output 10 (in_pri: 0, out_pri: 0).
11 | network_0/router_level1_21/vc_allocator | Input requests = [ 1 -> [ 41@0 42@0 43@0 ]  20 -> [ 45@0 46@0 47@0 ]  29 -> [ 36@0 37@0 38@0 39@0 ]  ], output requests = [ 36 -> [ 29@0 ]  37 -> [ 29@0 ]  38 -> [ 29@0 ]  39 -> [ 29@0 ]  41 -> [ 1@0 ]  42 -> [ 1@0 ]  43 -> [ 1@0 ]  45 -> [ 20@0 ]  46 -> [ 20@0 ]  47 -> [ 20@0 ]  ].
11 | network_0/router_level1_21/vc_allocator | Input grants = [ 1 -> 41  20 -> 45  29 -> 36  ], output grants = [ 36 -> 29  41 -> 1  45 -> 20  ].
11 | network_0/router_level1_21 | Assigning VC 1 at output 10 to VC 1 at input 0.
11 | network_0/router_level1_21 | Beginning switch allocation for VC 0 at input 0 (front: 3).
11 | network_0/router_level1_21 |   Requesting output 11.0 (non-spec, pri: 0).
11 | network_0/router_level1_21/sw_allocator | Input requests = [ 0 -> [ 11@0 ]  6 -> [ 10@0 ]  7 -> [ 8@0 ]  ], output requests = [ 8 -> [ 7@0 ]  10 -> [ 6@0 ]  11 -> [ 0@0 ]  ].
[...]
28 | network_0/router_level3_504/vc_allocator | Input grants = [ 24 -> 41  32 -> 4  44 -> 24  56 -> 21  ], output grants = [ 4 -> 32  21 -> 56  24 -> 44  41 -> 24  ].
28 | network_0/router_level3_504 | VC allocation failed for VC 1 at input 15.
28 | network_0/router_level3_504 | Completed VC allocation for VC 1 at input 15 (front: 10).
28 | network_0/router_level3_504 |   No output VC allocated.
28 | network_0/router_level3_505 | Adding flit 9 to VC 0 at input 12 (state: idle, empty).
28 | network_0/router_level3_505 | Using precomputed lookahead routing information for VC 0 at input 12 (front: 9).
28 | network_0/router_level3_505/buf_12/vc_0 | Changing state from idle to vc_alloc.
28 | network_0/router_level3_505 | Beginning VC allocation for VC 0 at input 12 (front: 9).
28 | network_0/router_level3_505 |   Requesting VC 0 at output 0 (in_pri: 0, out_pri: 0).
28 | network_0/router_level3_505 |   Requesting VC 1 at output 0 (in_pri: 0, out_pri: 0).
28 | network_0/router_level3_505 |   Requesting VC 2 at output 0 (in_pri: 0, out_pri: 0).
28 | network_0/router_level3_505 |   Requesting VC 3 at output 0 (in_pri: 0, out_pri: 0).
28 | network_0/router_level3_505/vc_allocator | Input requests = [ 48 -> [ 0@0 1@0 2@0 3@0 ]  ], output requests = [ 0 -> [ 48@0 ]  1 -> [ 48@0 ]  2 -> [ 48@0 ]  3 -> [ 48@0 ]  ].
28 | network_0/router_level3_505/vc_allocator | Input grants = [ 48 -> 0  ], output grants = [ 0 -> 48  ].
28 | network_0/router_level3_505 | Assigning VC 0 at output 0 to VC 0 at input 12.
28 | network_0/router_level3_505 | Beginning crossbar traversal for flit 8 from input 12.0 to output 1.0.
28 | network_0/router_level3_505 | Beginning crossbar traversal for flit 7 from input 14.0 to output 2.0.
28 | network_0/router_level3_505 | Completed VC allocation for VC 0 at input 12 (front: 9).
28 | network_0/router_level3_505 |   Acquiring assigned VC 0 at output 0.
28 | network_0/router_level3_505/buf_12/vc_0 | Changing state from vc_alloc to active.
28 | network_0/router_level3_505 | Completed crossbar traversal for flit 8 from input 12.0 to output 1.0.
28 | network_0/router_level3_505 | Buffering flit 8 at output 1.
28 | network_0/router_level3_505 | Completed crossbar traversal for flit 7 from input 14.0 to output 2.0.
28 | network_0/router_level3_505 | Buffering flit 7 at output 2.
28 | network_0/router_level3_506 | Beginning crossbar traversal for flit 5 from input 9.0 to output 7.0.
28 | network_0/router_level3_506 | Beginning crossbar traversal for flit 6 from input 11.0 to output 0.0.
28 | network_0/router_level3_506 | Completed crossbar traversal for flit 5 from input 9.0 to output 7.0.
28 | network_0/router_level3_506 | Buffering flit 5 at output 7.
28 | network_0/router_level3_506 | Completed crossbar traversal for flit 6 from input 11.0 to output 0.0.
28 | network_0/router_level3_506 | Buffering flit 6 at output 0.
28 | network_0/router_level3_507 | Beginning switch allocation for VC 0 at input 13 (front: 4).
28 | network_0/router_level3_507 |   Requesting output 5.0 (non-spec, pri: 0).
28 | network_0/router_level3_507/sw_allocator | Input requests = [ 8 -> [ 0@0 ]  13 -> [ 5@0 ]  ], output requests = [ 0 -> [ 8@0 ]  5 -> [ 13@0 ]  ].
28 | network_0/router_level3_507/sw_allocator | Input grants = [ 8 -> 0  13 -> 5  ], output grants = [ 0 -> 8  5 -> 13  ].
28 | network_0/router_level3_507 | Assigning output 5.0 to VC 0 at input 13.0.
28 | network_0/router_level3_507 | Completed switch allocation for VC 0 at input 13 (front: 4).
28 | network_0/router_level3_507 |   Scheduling switch connection from input 13.0 to output 5.0.
28 | network_0/router_level3_508 | Beginning crossbar traversal for flit 3 from input 13.0 to output 0.0.
28 | network_0/router_level3_508 | Completed crossbar traversal for flit 3 from input 13.0 to output 0.0.
28 | network_0/router_level3_508 | Buffering flit 3 at output 0.
28 | network_0/router_level3_509 | Beginning crossbar traversal for flit 2 from input 15.0 to output 5.0.
28 | network_0/router_level3_509 | Completed crossbar traversal for flit 2 from input 15.0 to output 5.0.
28 | network_0/router_level3_509 | Buffering flit 2 at output 5.
28 | network_0/router_level3_510 | Beginning crossbar traversal for flit 1 from input 8.0 to output 0.0.
28 | network_0/router_level3_510 | Completed crossbar traversal for flit 1 from input 8.0 to output 0.0.
28 | network_0/router_level3_510 | Buffering flit 1 at output 0.
28 | network_0/router_level3_505 | Sending flit 8 to channel at output 1.
28 | network_0/router_level3_505 | Sending flit 7 to channel at output 2.
28 | network_0/router_level3_506 | Sending flit 6 to channel at output 0.
28 | network_0/router_level3_506 | Sending flit 5 to channel at output 7.
28 | network_0/router_level3_508 | Sending flit 3 to channel at output 0.
28 | network_0/router_level3_509 | Sending flit 2 to channel at output 5.
28 | network_0/router_level3_510 | Sending flit 1 to channel at output 0.
29 | network_0/network_0_fchan_egress4041 | Beginning channel traversal for flit 8 with delay 1.
29 | network_0/network_0_fchan_egress4042 | Beginning channel traversal for flit 7 with delay 1.
29 | network_0/network_0_fchan_egress4048 | Beginning channel traversal for flit 6 with delay 1.
29 | network_0/network_0_fchan_egress4055 | Beginning channel traversal for flit 5 with delay 1.
29 | network_0/network_0_fchan_egress4064 | Beginning channel traversal for flit 3 with delay 1.
29 | network_0/network_0_fchan_egress4077 | Beginning channel traversal for flit 2 with delay 1.
29 | network_0/network_0_fchan_egress4080 | Beginning channel traversal for flit 1 with delay 1.
29 | network_0/router_level3_504 | Beginning VC allocation for VC 1 at input 15 (front: 10).
29 | network_0/router_level3_504 |   Requesting VC 0 at output 5 (in_pri: 0, out_pri: 0).
29 | network_0/router_level3_504 |   VC 1 at output 5 is in use by VC 0 at input 14 (front flit: 1961).
29 | network_0/router_level3_504 |   Requesting VC 2 at output 5 (in_pri: 0, out_pri: 0).
29 | network_0/router_level3_504 |   Requesting VC 3 at output 5 (in_pri: 0, out_pri: 0).
29 | network_0/router_level3_504/vc_allocator | Input requests = [ 61 -> [ 20@0 22@0 23@0 ]  ], output requests = [ 20 -> [ 61@0 ]  22 -> [ 61@0 ]  23 -> [ 61@0 ]  ].
29 | network_0/router_level3_504/vc_allocator | Input grants = [ 61 -> 20  ], output grants = [ 20 -> 61  ].
29 | network_0/router_level3_504 | Assigning VC 0 at output 5 to VC 1 at input 15.
29 | network_0/router_level3_504 | Completed VC allocation for VC 1 at input 15 (front: 10).
29 | network_0/router_level3_504 |   Acquiring assigned VC 0 at output 5.
29 | network_0/router_level3_504/buf_15/vc_1 | Changing state from vc_alloc to active.
29 | network_0/router_level3_505 | Beginning switch allocation for VC 0 at input 12 (front: 9).
29 | network_0/router_level3_505 |   Requesting output 0.0 (non-spec, pri: 0).
29 | network_0/router_level3_505/sw_allocator | Input requests = [ 12 -> [ 0@0 ]  ], output requests = [ 0 -> [ 12@0 ]  ].
29 | network_0/router_level3_505/sw_allocator | Input grants = [ 12 -> 0  ], output grants = [ 0 -> 12  ].
29 | network_0/router_level3_505 | Assigning output 0.0 to VC 0 at input 12.0.
29 | network_0/router_level3_505 | Completed switch allocation for VC 0 at input 12 (front: 9).
29 | network_0/router_level3_505 |   Scheduling switch connection from input 12.0 to output 0.0.
29 | network_0/router_level3_507 | Beginning crossbar traversal for flit 4 from input 13.0 to output 5.0.
29 | network_0/router_level3_507 | Completed crossbar traversal for flit 4 from input 13.0 to output 5.0.
29 | network_0/router_level3_507 | Buffering flit 4 at output 5.
29 | network_0/network_0_fchan_egress4041 | Completed channel traversal for flit 8.
29 | network_0/network_0_fchan_egress4042 | Completed channel traversal for flit 7.
29 | network_0/network_0_fchan_egress4048 | Completed channel traversal for flit 6.
29 | network_0/network_0_fchan_egress4055 | Completed channel traversal for flit 5.
29 | network_0/network_0_fchan_egress4064 | Completed channel traversal for flit 3.
29 | network_0/network_0_fchan_egress4077 | Completed channel traversal for flit 2.
29 | network_0/network_0_fchan_egress4080 | Completed channel traversal for flit 1.
29 | network_0/router_level3_507 | Sending flit 4 to channel at output 5.
30 | node4041 | Ejecting flit 8 (packet 8) from VC 0.
30 | node4042 | Ejecting flit 7 (packet 7) from VC 0.
30 | node4048 | Ejecting flit 6 (packet 6) from VC 0.
30 | node4055 | Ejecting flit 5 (packet 5) from VC 0.
30 | node4064 | Ejecting flit 3 (packet 3) from VC 0.
30 | node4077 | Ejecting flit 2 (packet 2) from VC 0.
30 | node4080 | Ejecting flit 1 (packet 1) from VC 0.
30 | network_0/network_0_fchan_egress4061 | Beginning channel traversal for flit 4 with delay 1.
30 | node4041 | Injecting credit for VC 0 into subnet 0.
30 | node4041 | Retiring flit 8 (packet 8, src = 54, dest = 4041, hops = 7, flat = 30).
30 | node4041 | Retiring packet 8 (plat = 30, nlat = 30, frag = 0, src = 54, dest = 4041).
30 | node4042 | Injecting credit for VC 0 into subnet 0.
30 | node4042 | Retiring flit 7 (packet 7, src = 53, dest = 4042, hops = 7, flat = 30).
30 | node4042 | Retiring packet 7 (plat = 30, nlat = 30, frag = 0, src = 53, dest = 4042).
30 | node4048 | Injecting credit for VC 0 into subnet 0.
30 | node4048 | Retiring flit 6 (packet 6, src = 47, dest = 4048, hops = 7, flat = 30).
30 | node4048 | Retiring packet 6 (plat = 30, nlat = 30, frag = 0, src = 47, dest = 4048).
30 | node4055 | Injecting credit for VC 0 into subnet 0.
30 | node4055 | Retiring flit 5 (packet 5, src = 40, dest = 4055, hops = 7, flat = 30).
30 | node4055 | Retiring packet 5 (plat = 30, nlat = 30, frag = 0, src = 40, dest = 4055).
30 | node4064 | Injecting credit for VC 0 into subnet 0.
30 | node4064 | Retiring flit 3 (packet 3, src = 31, dest = 4064, hops = 7, flat = 30).
30 | node4064 | Retiring packet 3 (plat = 30, nlat = 30, frag = 0, src = 31, dest = 4064).
30 | node4077 | Injecting credit for VC 0 into subnet 0.
30 | node4077 | Retiring flit 2 (packet 2, src = 18, dest = 4077, hops = 7, flat = 30).
30 | node4077 | Retiring packet 2 (plat = 30, nlat = 30, frag = 0, src = 18, dest = 4077).
30 | node4080 | Injecting credit for VC 0 into subnet 0.
30 | node4080 | Retiring flit 1 (packet 1, src = 15, dest = 4080, hops = 7, flat = 30).
30 | node4080 | Retiring packet 1 (plat = 30, nlat = 30, frag = 0, src = 15, dest = 4080).
30 | network_0/router_level3_504 | Beginning switch allocation for VC 1 at input 15 (front: 10).
30 | network_0/router_level3_504 |   Requesting output 5.0 (non-spec, pri: 0).
30 | network_0/router_level3_504/sw_allocator | Input requests = [ 6 -> [ 10@0 ]  15 -> [ 5@0 ]  ], output requests = [ 5 -> [ 15@0 ]  10 -> [ 6@0 ]  ].
30 | network_0/router_level3_504/sw_allocator | Input grants = [ 6 -> 10  15 -> 5  ], output grants = [ 5 -> 15  10 -> 6  ].
30 | network_0/router_level3_504 | Assigning output 5.0 to VC 1 at input 15.0.
30 | network_0/router_level3_504 | Completed switch allocation for VC 1 at input 15 (front: 10).
30 | network_0/router_level3_504 |   Scheduling switch connection from input 15.0 to output 5.0.
30 | network_0/router_level3_505 | Beginning crossbar traversal for flit 9 from input 12.0 to output 0.0.
30 | network_0/router_level3_505 | Completed crossbar traversal for flit 9 from input 12.0 to output 0.0.
30 | network_0/router_level3_505 | Buffering flit 9 at output 0.
30 | network_0/network_0_fchan_egress4061 | Completed channel traversal for flit 4.
30 | network_0/router_level3_505 | Sending flit 9 to channel at output 0.
31 | node4061 | Ejecting flit 4 (packet 4) from VC 0.
31 | network_0/network_0_fchan_egress4040 | Beginning channel traversal for flit 9 with delay 1.
31 | node4061 | Injecting credit for VC 0 into subnet 0.
31 | node4061 | Retiring flit 4 (packet 4, src = 34, dest = 4061, hops = 7, flat = 31).
31 | node4061 | Retiring packet 4 (plat = 31, nlat = 31, frag = 0, src = 34, dest = 4061).
31 | network_0/router_level3_504 | Beginning crossbar traversal for flit 10 from input 15.0 to output 5.0.
31 | network_0/router_level3_504 | Completed crossbar traversal for flit 10 from input 15.0 to output 5.0.
31 | network_0/router_level3_504 | Buffering flit 10 at output 5.
31 | network_0/network_0_fchan_egress4040 | Completed channel traversal for flit 9.
31 | network_0/router_level3_504 | Sending flit 10 to channel at output 5.
32 | node4040 | Ejecting flit 9 (packet 9) from VC 0.
32 | network_0/network_0_fchan_egress4037 | Beginning channel traversal for flit 10 with delay 1.
32 | node4040 | Injecting credit for VC 0 into subnet 0.
32 | node4040 | Retiring flit 9 (packet 9, src = 55, dest = 4040, hops = 7, flat = 32).
32 | node4040 | Retiring packet 9 (plat = 32, nlat = 32, frag = 0, src = 55, dest = 4040).
32 | network_0/network_0_fchan_egress4037 | Completed channel traversal for flit 10.
33 | node4037 | Ejecting flit 10 (packet 10) from VC 0.
33 | node4037 | Injecting credit for VC 0 into subnet 0.
33 | node4037 | Retiring flit 10 (packet 10, src = 58, dest = 4037, hops = 7, flat = 33).
33 | node4037 | Retiring packet 10 (plat = 33, nlat = 33, frag = 0, src = 58, dest = 4037).
Class 0:
Packet latency average = 31.5651
	minimum = 30
	maximum = 55
Network latency average = 31.5651
	minimum = 30
	maximum = 55
Slowest packet = 920253
Flit latency average = 31.5651
	minimum = 30
	maximum = 55
Slowest flit = 920253
Fragmentation average = 0
	minimum = 0
	maximum = 0
Injected packet rate average = 0.249846
	minimum = 0.203 (at node 2897)
	maximum = 0.294 (at node 1603)
Accepted packet rate average = 0.241933
	minimum = 0.196 (at node 1198)
	maximum = 0.288 (at node 2492)
Injected flit rate average = 0.249846
	minimum = 0.203 (at node 2897)
	maximum = 0.294 (at node 1603)
Accepted flit rate average= 0.241933
	minimum = 0.196 (at node 1198)
	maximum = 0.288 (at node 2492)
Injected packet length average = 1
Accepted packet length average = 1
Total in-flight flits = 32409 (0 measured)
latency change    = 1
throughput change = 1
Class 0:
Packet latency average = 31.5732
	minimum = 30
	maximum = 60
Network latency average = 31.5732
	minimum = 30
	maximum = 60
Slowest packet = 1773282
Flit latency average = 31.5732
	minimum = 30
	maximum = 60
Slowest flit = 1773282
Fragmentation average = 0
	minimum = 0
	maximum = 0
Injected packet rate average = 0.249935
	minimum = 0.216 (at node 562)
	maximum = 0.283 (at node 372)
Accepted packet rate average = 0.246034
	minimum = 0.211 (at node 220)
	maximum = 0.279 (at node 3305)
Injected flit rate average = 0.249935
	minimum = 0.216 (at node 562)
	maximum = 0.283 (at node 372)
Accepted flit rate average= 0.246034
	minimum = 0.211 (at node 220)
	maximum = 0.279 (at node 3305)
Injected packet length average = 1
Accepted packet length average = 1
Total in-flight flits = 31954 (0 measured)
latency change    = 0.000255417
throughput change = 0.0166667
Class 0:
Packet latency average = 31.5706
	minimum = 30
	maximum = 56
Network latency average = 31.5706
	minimum = 30
	maximum = 56
Slowest packet = 2655811
Flit latency average = 31.5706
	minimum = 30
	maximum = 56
Slowest flit = 2655811
Fragmentation average = 0
	minimum = 0
	maximum = 0
Injected packet rate average = 0.249972
	minimum = 0.198 (at node 2167)
	maximum = 0.303 (at node 1882)
Accepted packet rate average = 0.249857
	minimum = 0.194 (at node 1928)
	maximum = 0.306 (at node 2213)
Injected flit rate average = 0.249972
	minimum = 0.198 (at node 2167)
	maximum = 0.303 (at node 1882)
Accepted flit rate average= 0.249857
	minimum = 0.194 (at node 1928)
	maximum = 0.306 (at node 2213)
Injected packet length average = 1
Accepted packet length average = 1
Total in-flight flits = 32424 (0 measured)
latency change    = 8.31937e-05
throughput change = 0.0153027
Warmed up ...Time used is 3000 cycles
Class 0:
Packet latency average = 31.5705
	minimum = 30
	maximum = 57
Network latency average = 31.5705
	minimum = 30
	maximum = 57
Slowest packet = 3260546
Flit latency average = 31.5742
	minimum = 30
	maximum = 57
Slowest flit = 3260546
Fragmentation average = 0
	minimum = 0
	maximum = 0
Injected packet rate average = 0.249658
	minimum = 0.193 (at node 3355)
	maximum = 0.3 (at node 3684)
Accepted packet rate average = 0.24976
	minimum = 0.193 (at node 740)
	maximum = 0.297 (at node 1290)
Injected flit rate average = 0.249658
	minimum = 0.193 (at node 3355)
	maximum = 0.3 (at node 3684)
Accepted flit rate average= 0.24976
	minimum = 0.193 (at node 740)
	maximum = 0.297 (at node 1290)
Injected packet length average = 1
Accepted packet length average = 1
Total in-flight flits = 32009 (32009 measured)
latency change    = 3.04746e-06
throughput change = 0.000391001
Class 0:
Packet latency average = 31.5781
	minimum = 30
	maximum = 59
Network latency average = 31.5781
	minimum = 30
	maximum = 59
Slowest packet = 4233244
Flit latency average = 31.5799
	minimum = 30
	maximum = 59
Slowest flit = 4233244
Fragmentation average = 0
	minimum = 0
	maximum = 0
Injected packet rate average = 0.249988
	minimum = 0.2155 (at node 382)
	maximum = 0.281 (at node 1298)
Accepted packet rate average = 0.250016
	minimum = 0.2145 (at node 3713)
	maximum = 0.281 (at node 1659)
Injected flit rate average = 0.249988
	minimum = 0.2155 (at node 382)
	maximum = 0.281 (at node 1298)
Accepted flit rate average= 0.250016
	minimum = 0.2145 (at node 3713)
	maximum = 0.281 (at node 1659)
Injected packet length average = 1
Accepted packet length average = 1
Total in-flight flits = 32191 (32191 measured)
latency change    = 0.000241896
throughput change = 0.00102484
Class 0:
Packet latency average = 31.5799
	minimum = 30
	maximum = 59
Network latency average = 31.5799
	minimum = 30
	maximum = 59
Slowest packet = 4233244
Flit latency average = 31.5811
	minimum = 30
	maximum = 59
Slowest flit = 4233244
Fragmentation average = 0
	minimum = 0
	maximum = 0
Injected packet rate average = 0.25003
	minimum = 0.223667 (at node 2643)
	maximum = 0.275667 (at node 3730)
Accepted packet rate average = 0.250045
	minimum = 0.223667 (at node 1452)
	maximum = 0.276 (at node 1200)
Injected flit rate average = 0.25003
	minimum = 0.223667 (at node 2643)
	maximum = 0.275667 (at node 3730)
Accepted flit rate average= 0.250045
	minimum = 0.223667 (at node 1452)
	maximum = 0.276 (at node 1200)
Injected packet length average = 1
Accepted packet length average = 1
Total in-flight flits = 32239 (32239 measured)
latency change    = 5.65668e-05
throughput change = 0.000116353
Draining all recorded packets ...
Draining remaining packets ...
Time taken is 6086 cycles
====== Overall Traffic Statistics ======
====== Traffic class 0 ======
Packet latency average = 31.5809 (1 samples)
	minimum = 30 (1 samples)
	maximum = 59 (1 samples)
Network latency average = 31.5809 (1 samples)
	minimum = 30 (1 samples)
	maximum = 59 (1 samples)
Flit latency average = 31.5816 (1 samples)
	minimum = 30 (1 samples)
	maximum = 59 (1 samples)
Fragmentation average = 0 (1 samples)
	minimum = 0 (1 samples)
	maximum = 0 (1 samples)
Injected packet rate average = 0.25003 (1 samples)
	minimum = 0.223667 (1 samples)
	maximum = 0.275667 (1 samples)
Accepted packet rate average = 0.250045 (1 samples)
	minimum = 0.223667 (1 samples)
	maximum = 0.276 (1 samples)
Injected flit rate average = 0.25003 (1 samples)
	minimum = 0.223667 (1 samples)
	maximum = 0.275667 (1 samples)
Accepted flit rate average = 0.250045 (1 samples)
	minimum = 0.223667 (1 samples)
	maximum = 0.276 (1 samples)
Injected packet size average = 1 (1 samples)
Accepted packet size average = 1 (1 samples)
Hops average = 7 (1 samples)
Total run time 582.318
