BEGIN Configuration File: examples/fattree_config_0.75_1_uniform
// $Id: dragonflyconfig 3555 2011-05-16 23:37:55Z dub $

// Copyright (c) 2007-2015, Trustees of The Leland Stanford Junior University
// All rights reserved.
//
// Redistribution and use in source and binary forms, with or without
// modification, are permitted provided that the following conditions are met:
//
// Redistributions of source code must retain the above copyright notice, this
// list of conditions and the following disclaimer.
// Redistributions in binary form must reproduce the above copyright notice,
// this list of conditions and the following disclaimer in the documentation
// and/or other materials provided with the distribution.
//
// THIS SOFTWARE IS PROVIDED BY THE COPYRIGHT HOLDERS AND CONTRIBUTORS "AS IS"
// AND ANY EXPRESS OR IMPLIED WARRANTIES, INCLUDING, BUT NOT LIMITED TO, THE
// IMPLIED WARRANTIES OF MERCHANTABILITY AND FITNESS FOR A PARTICULAR PURPOSE
// ARE DISCLAIMED. IN NO EVENT SHALL THE COPYRIGHT OWNER OR CONTRIBUTORS BE
// LIABLE FOR ANY DIRECT, INDIRECT, INCIDENTAL, SPECIAL, EXEMPLARY, OR
// CONSEQUENTIAL DAMAGES (INCLUDING, BUT NOT LIMITED TO, PROCUREMENT OF
// SUBSTITUTE GOODS OR SERVICES; LOSS OF USE, DATA, OR PROFITS; OR BUSINESS
// INTERRUPTION) HOWEVER CAUSED AND ON ANY THEORY OF LIABILITY, WHETHER IN
// CONTRACT, STRICT LIABILITY, OR TORT (INCLUDING NEGLIGENCE OR OTHERWISE)
// ARISING IN ANY WAY OUT OF THE USE OF THIS SOFTWARE, EVEN IF ADVISED OF THE
// POSSIBILITY OF SUCH DAMAGE.


hold_switch_for_packet=1;

vc_buf_size = 16;


wait_for_tail_credit = 0;

//
// Router architecture
//
vc_allocator = separable_input_first; 
sw_allocator = separable_input_first;
alloc_iters  = 1;

credit_delay   = 2;
routing_delay  = 0;
vc_alloc_delay = 1;
sw_alloc_delay = 1;
st_final_delay = 1;

input_speedup     = 1;
output_speedup    = 1;
internal_speedup  = 1.0;


warmup_periods = 3;
sim_count          = 1;

sample_period  = 1000;  

routing_function = nca;
num_vcs     = 4;

priority = none;
traffic = uniform;


injection_rate = 0.75;
packet_size = 1;
injection_rate_uses_flits=1;

topology = fattree;

k  = 8;
n  = 4;
t = 1;

watch_file = watchfile.txt;
watch_out=-;
stats_out = examples/fattree_config_0.75_1_uniform.m;

END Configuration File: examples/fattree_config_0.75_1_uniform
Fat Tree
 k = 8 levels = 4
 each switch - total radix =  16
 # of switches = 2048
 # of channels = 24576
 # of nodes ( size of network ) = 4096
 tapering factor = 1
0 | node2 | Enqueuing flit 1 (packet 1) at time 0.
0 | node3 | Enqueuing flit 2 (packet 2) at time 0.
0 | node4 | Enqueuing flit 3 (packet 3) at time 0.
0 | node5 | Enqueuing flit 4 (packet 4) at time 0.
0 | node8 | Enqueuing flit 5 (packet 5) at time 0.
0 | node9 | Enqueuing flit 6 (packet 6) at time 0.
0 | node11 | Enqueuing flit 7 (packet 7) at time 0.
0 | node12 | Enqueuing flit 8 (packet 8) at time 0.
0 | node13 | Enqueuing flit 9 (packet 9) at time 0.
0 | node14 | Enqueuing flit 10 (packet 10) at time 0.
0 | traffic_manager | Finding output VC for flit 1:
0 | traffic_manager |   Selected output VC 0.
0 | node2 | Generating lookahead routing info for flit 1.
0 | node2 | Injecting flit 1 into subnet 0 at time 0 with priority 0.
0 | traffic_manager | Finding output VC for flit 2:
0 | traffic_manager |   Selected output VC 0.
0 | node3 | Generating lookahead routing info for flit 2.
0 | node3 | Injecting flit 2 into subnet 0 at time 0 with priority 0.
0 | traffic_manager | Finding output VC for flit 3:
0 | traffic_manager |   Selected output VC 0.
0 | node4 | Generating lookahead routing info for flit 3.
0 | node4 | Injecting flit 3 into subnet 0 at time 0 with priority 0.
0 | traffic_manager | Finding output VC for flit 4:
0 | traffic_manager |   Selected output VC 0.
0 | node5 | Generating lookahead routing info for flit 4.
0 | node5 | Injecting flit 4 into subnet 0 at time 0 with priority 0.
0 | traffic_manager | Finding output VC for flit 5:
0 | traffic_manager |   Selected output VC 0.
0 | node8 | Generating lookahead routing info for flit 5.
0 | node8 | Injecting flit 5 into subnet 0 at time 0 with priority 0.
0 | traffic_manager | Finding output VC for flit 6:
0 | traffic_manager |   Selected output VC 0.
0 | node9 | Generating lookahead routing info for flit 6.
0 | node9 | Injecting flit 6 into subnet 0 at time 0 with priority 0.
0 | traffic_manager | Finding output VC for flit 7:
0 | traffic_manager |   Selected output VC 0.
0 | node11 | Generating lookahead routing info for flit 7.
0 | node11 | Injecting flit 7 into subnet 0 at time 0 with priority 0.
0 | traffic_manager | Finding output VC for flit 8:
0 | traffic_manager |   Selected output VC 0.
0 | node12 | Generating lookahead routing info for flit 8.
0 | node12 | Injecting flit 8 into subnet 0 at time 0 with priority 0.
0 | traffic_manager | Finding output VC for flit 9:
0 | traffic_manager |   Selected output VC 0.
0 | node13 | Generating lookahead routing info for flit 9.
0 | node13 | Injecting flit 9 into subnet 0 at time 0 with priority 0.
0 | traffic_manager | Finding output VC for flit 10:
0 | traffic_manager |   Selected output VC 0.
0 | node14 | Generating lookahead routing info for flit 10.
0 | node14 | Injecting flit 10 into subnet 0 at time 0 with priority 0.
1 | network_0/network_0_fchan_ingress2 | Beginning channel traversal for flit 1 with delay 1.
1 | network_0/network_0_fchan_ingress3 | Beginning channel traversal for flit 2 with delay 1.
1 | network_0/network_0_fchan_ingress4 | Beginning channel traversal for flit 3 with delay 1.
1 | network_0/network_0_fchan_ingress5 | Beginning channel traversal for flit 4 with delay 1.
1 | network_0/network_0_fchan_ingress8 | Beginning channel traversal for flit 5 with delay 1.
1 | network_0/network_0_fchan_ingress9 | Beginning channel traversal for flit 6 with delay 1.
1 | network_0/network_0_fchan_ingress11 | Beginning channel traversal for flit 7 with delay 1.
1 | network_0/network_0_fchan_ingress12 | Beginning channel traversal for flit 8 with delay 1.
1 | network_0/network_0_fchan_ingress13 | Beginning channel traversal for flit 9 with delay 1.
1 | network_0/network_0_fchan_ingress14 | Beginning channel traversal for flit 10 with delay 1.
1 | network_0/network_0_fchan_ingress2 | Completed channel traversal for flit 1.
1 | network_0/network_0_fchan_ingress3 | Completed channel traversal for flit 2.
1 | network_0/network_0_fchan_ingress4 | Completed channel traversal for flit 3.
1 | network_0/network_0_fchan_ingress5 | Completed channel traversal for flit 4.
1 | network_0/network_0_fchan_ingress8 | Completed channel traversal for flit 5.
1 | network_0/network_0_fchan_ingress9 | Completed channel traversal for flit 6.
1 | network_0/network_0_fchan_ingress11 | Completed channel traversal for flit 7.
1 | network_0/network_0_fchan_ingress12 | Completed channel traversal for flit 8.
1 | network_0/network_0_fchan_ingress13 | Completed channel traversal for flit 9.
1 | network_0/network_0_fchan_ingress14 | Completed channel traversal for flit 10.
2 | network_0/router_level3_0 | Received flit 1 from channel at input 2.
2 | network_0/router_level3_0 | Received flit 2 from channel at input 3.
2 | network_0/router_level3_0 | Received flit 3 from channel at input 4.
2 | network_0/router_level3_0 | Received flit 4 from channel at input 5.
2 | network_0/router_level3_1 | Received flit 5 from channel at input 0.
2 | network_0/router_level3_1 | Received flit 6 from channel at input 1.
2 | network_0/router_level3_1 | Received flit 7 from channel at input 3.
2 | network_0/router_level3_1 | Received flit 8 from channel at input 4.
2 | network_0/router_level3_1 | Received flit 9 from channel at input 5.
2 | network_0/router_level3_1 | Received flit 10 from channel at input 6.
2 | network_0/router_level3_0 | Adding flit 1 to VC 0 at input 2 (state: idle, empty).
2 | network_0/router_level3_0 | Using precomputed lookahead routing information for VC 0 at input 2 (front: 1).
2 | network_0/router_level3_0/buf_2/vc_0 | Changing state from idle to vc_alloc.
2 | network_0/router_level3_0 | Adding flit 2 to VC 0 at input 3 (state: idle, empty).
2 | network_0/router_level3_0 | Using precomputed lookahead routing information for VC 0 at input 3 (front: 2).
2 | network_0/router_level3_0/buf_3/vc_0 | Changing state from idle to vc_alloc.
2 | network_0/router_level3_0 | Adding flit 3 to VC 0 at input 4 (state: idle, empty).
2 | network_0/router_level3_0 | Using precomputed lookahead routing information for VC 0 at input 4 (front: 3).
2 | network_0/router_level3_0/buf_4/vc_0 | Changing state from idle to vc_alloc.
2 | network_0/router_level3_0 | Adding flit 4 to VC 0 at input 5 (state: idle, empty).
2 | network_0/router_level3_0 | Using precomputed lookahead routing information for VC 0 at input 5 (front: 4).
2 | network_0/router_level3_0/buf_5/vc_0 | Changing state from idle to vc_alloc.
2 | network_0/router_level3_0 | Beginning VC allocation for VC 0 at input 2 (front: 1).
2 | network_0/router_level3_0 |   Requesting VC 0 at output 8 (in_pri: 0, out_pri: 0).
2 | network_0/router_level3_0 |   Requesting VC 1 at output 8 (in_pri: 0, out_pri: 0).
2 | network_0/router_level3_0 |   Requesting VC 2 at output 8 (in_pri: 0, out_pri: 0).
2 | network_0/router_level3_0 |   Requesting VC 3 at output 8 (in_pri: 0, out_pri: 0).
2 | network_0/router_level3_0 | Beginning VC allocation for VC 0 at input 3 (front: 2).
2 | network_0/router_level3_0 |   Requesting VC 0 at output 12 (in_pri: 0, out_pri: 0).
2 | network_0/router_level3_0 |   Requesting VC 1 at output 12 (in_pri: 0, out_pri: 0).
2 | network_0/router_level3_0 |   Requesting VC 2 at output 12 (in_pri: 0, out_pri: 0).
2 | network_0/router_level3_0 |   Requesting VC 3 at output 12 (in_pri: 0, out_pri: 0).
2 | network_0/router_level3_0 | Beginning VC allocation for VC 0 at input 4 (front: 3).
2 | network_0/router_level3_0 |   Requesting VC 0 at output 11 (in_pri: 0, out_pri: 0).
2 | network_0/router_level3_0 |   Requesting VC 1 at output 11 (in_pri: 0, out_pri: 0).
2 | network_0/router_level3_0 |   Requesting VC 2 at output 11 (in_pri: 0, out_pri: 0).
2 | network_0/router_level3_0 |   Requesting VC 3 at output 11 (in_pri: 0, out_pri: 0).
2 | network_0/router_level3_0 | Beginning VC allocation for VC 0 at input 5 (front: 4).
2 | network_0/router_level3_0 |   Requesting VC 0 at output 15 (in_pri: 0, out_pri: 0).
2 | network_0/router_level3_0 |   Requesting VC 1 at output 15 (in_pri: 0, out_pri: 0).
2 | network_0/router_level3_0 |   Requesting VC 2 at output 15 (in_pri: 0, out_pri: 0).
2 | network_0/router_level3_0 |   Requesting VC 3 at output 15 (in_pri: 0, out_pri: 0).
2 | network_0/router_level3_0/vc_allocator | Input requests = [ 4 -> [ 52@0 53@0 54@0 55@0 ]  8 -> [ 32@0 33@0 34@0 35@0 ]  12 -> [ 48@0 49@0 50@0 51@0 ]  16 -> [ 44@0 45@0 46@0 47@0 ]  20 -> [ 60@0 61@0 62@0 63@0 ]  ], output requests = [ 32 -> [ 8@0 ]  33 -> [ 8@0 ]  34 -> [ 8@0 ]  35 -> [ 8@0 ]  44 -> [ 16@0 ]  45 -> [ 16@0 ]  46 -> [ 16@0 ]  47 -> [ 16@0 ]  48 -> [ 12@0 ]  49 -> [ 12@0 ]  50 -> [ 12@0 ]  51 -> [ 12@0 ]  52 -> [ 4@0 ]  53 -> [ 4@0 ]  54 -> [ 4@0 ]  55 -> [ 4@0 ]  60 -> [ 20@0 ]  61 -> [ 20@0 ]  62 -> [ 20@0 ]  63 -> [ 20@0 ]  ].
2 | network_0/router_level3_0/vc_allocator | Input grants = [ 4 -> 52  8 -> 32  12 -> 48  16 -> 44  20 -> 60  ], output grants = [ 32 -> 8  44 -> 16  48 -> 12  52 -> 4  60 -> 20  ].
2 | network_0/router_level3_0 | Assigning VC 0 at output 8 to VC 0 at input 2.
2 | network_0/router_level3_0 | Assigning VC 0 at output 12 to VC 0 at input 3.
2 | network_0/router_level3_0 | Assigning VC 0 at output 11 to VC 0 at input 4.
2 | network_0/router_level3_0 | Assigning VC 0 at output 15 to VC 0 at input 5.
2 | network_0/router_level3_0 | Completed VC allocation for VC 0 at input 2 (front: 1).
2 | network_0/router_level3_0 |   Acquiring assigned VC 0 at output 8.
2 | network_0/router_level3_0/buf_2/vc_0 | Changing state from vc_alloc to active.
2 | network_0/router_level3_0 | Completed VC allocation for VC 0 at input 3 (front: 2).
2 | network_0/router_level3_0 |   Acquiring assigned VC 0 at output 12.
2 | network_0/router_level3_0/buf_3/vc_0 | Changing state from vc_alloc to active.
2 | network_0/router_level3_0 | Completed VC allocation for VC 0 at input 4 (front: 3).
2 | network_0/router_level3_0 |   Acquiring assigned VC 0 at output 11.
2 | network_0/router_level3_0/buf_4/vc_0 | Changing state from vc_alloc to active.
2 | network_0/router_level3_0 | Completed VC allocation for VC 0 at input 5 (front: 4).
2 | network_0/router_level3_0 |   Acquiring assigned VC 0 at output 15.
2 | network_0/router_level3_0/buf_5/vc_0 | Changing state from vc_alloc to active.
2 | network_0/router_level3_1 | Adding flit 5 to VC 0 at input 0 (state: idle, empty).
2 | network_0/router_level3_1 | Using precomputed lookahead routing information for VC 0 at input 0 (front: 5).
2 | network_0/router_level3_1/buf_0/vc_0 | Changing state from idle to vc_alloc.
2 | network_0/router_level3_1 | Adding flit 6 to VC 0 at input 1 (state: idle, empty).
2 | network_0/router_level3_1 | Using precomputed lookahead routing information for VC 0 at input 1 (front: 6).
2 | network_0/router_level3_1/buf_1/vc_0 | Changing state from idle to vc_alloc.
2 | network_0/router_level3_1 | Adding flit 7 to VC 0 at input 3 (state: idle, empty).
2 | network_0/router_level3_1 | Using precomputed lookahead routing information for VC 0 at input 3 (front: 7).
2 | network_0/router_level3_1/buf_3/vc_0 | Changing state from idle to vc_alloc.
2 | network_0/router_level3_1 | Adding flit 8 to VC 0 at input 4 (state: idle, empty).
2 | network_0/router_level3_1 | Using precomputed lookahead routing information for VC 0 at input 4 (front: 8).
2 | network_0/router_level3_1/buf_4/vc_0 | Changing state from idle to vc_alloc.
2 | network_0/router_level3_1 | Adding flit 9 to VC 0 at input 5 (state: idle, empty).
2 | network_0/router_level3_1 | Using precomputed lookahead routing information for VC 0 at input 5 (front: 9).
2 | network_0/router_level3_1/buf_5/vc_0 | Changing state from idle to vc_alloc.
2 | network_0/router_level3_1 | Adding flit 10 to VC 0 at input 6 (state: idle, empty).
2 | network_0/router_level3_1 | Using precomputed lookahead routing information for VC 0 at input 6 (front: 10).
2 | network_0/router_level3_1/buf_6/vc_0 | Changing state from idle to vc_alloc.
2 | network_0/router_level3_1 | Beginning VC allocation for VC 0 at input 0 (front: 5).
2 | network_0/router_level3_1 |   Requesting VC 0 at output 9 (in_pri: 0, out_pri: 0).
2 | network_0/router_level3_1 |   Requesting VC 1 at output 9 (in_pri: 0, out_pri: 0).
2 | network_0/router_level3_1 |   Requesting VC 2 at output 9 (in_pri: 0, out_pri: 0).
2 | network_0/router_level3_1 |   Requesting VC 3 at output 9 (in_pri: 0, out_pri: 0).
2 | network_0/router_level3_1 | Beginning VC allocation for VC 0 at input 1 (front: 6).
2 | network_0/router_level3_1 |   Requesting VC 0 at output 11 (in_pri: 0, out_pri: 0).
2 | network_0/router_level3_1 |   Requesting VC 1 at output 11 (in_pri: 0, out_pri: 0).
2 | network_0/router_level3_1 |   Requesting VC 2 at output 11 (in_pri: 0, out_pri: 0).
2 | network_0/router_level3_1 |   Requesting VC 3 at output 11 (in_pri: 0, out_pri: 0).
2 | network_0/router_level3_1 | Beginning VC allocation for VC 0 at input 3 (front: 7).
2 | network_0/router_level3_1 |   Requesting VC 0 at output 11 (in_pri: 0, out_pri: 0).
2 | network_0/router_level3_1 |   Requesting VC 1 at output 11 (in_pri: 0, out_pri: 0).
2 | network_0/router_level3_1 |   Requesting VC 2 at output 11 (in_pri: 0, out_pri: 0).
2 | network_0/router_level3_1 |   Requesting VC 3 at output 11 (in_pri: 0, out_pri: 0).
2 | network_0/router_level3_1 | Beginning VC allocation for VC 0 at input 4 (front: 8).
2 | network_0/router_level3_1 |   Requesting VC 0 at output 12 (in_pri: 0, out_pri: 0).
2 | network_0/router_level3_1 |   Requesting VC 1 at output 12 (in_pri: 0, out_pri: 0).
2 | network_0/router_level3_1 |   Requesting VC 2 at output 12 (in_pri: 0, out_pri: 0).
2 | network_0/router_level3_1 |   Requesting VC 3 at output 12 (in_pri: 0, out_pri: 0).
2 | network_0/router_level3_1 | Beginning VC allocation for VC 0 at input 5 (front: 9).
2 | network_0/router_level3_1 |   Requesting VC 0 at output 9 (in_pri: 0, out_pri: 0).
2 | network_0/router_level3_1 |   Requesting VC 1 at output 9 (in_pri: 0, out_pri: 0).
2 | network_0/router_level3_1 |   Requesting VC 2 at output 9 (in_pri: 0, out_pri: 0).
2 | network_0/router_level3_1 |   Requesting VC 3 at output 9 (in_pri: 0, out_pri: 0).
2 | network_0/router_level3_1 | Beginning VC allocation for VC 0 at input 6 (front: 10).
2 | network_0/router_level3_1 |   Requesting VC 0 at output 13 (in_pri: 0, out_pri: 0).
2 | network_0/router_level3_1 |   Requesting VC 1 at output 13 (in_pri: 0, out_pri: 0).
2 | network_0/router_level3_1 |   Requesting VC 2 at output 13 (in_pri: 0, out_pri: 0).
2 | network_0/router_level3_1 |   Requesting VC 3 at output 13 (in_pri: 0, out_pri: 0).
2 | network_0/router_level3_1/vc_allocator | Input requests = [ 0 -> [ 36@0 37@0 38@0 39@0 ]  4 -> [ 44@0 45@0 46@0 47@0 ]  12 -> [ 44@0 45@0 46@0 47@0 ]  16 -> [ 48@0 49@0 50@0 51@0 ]  20 -> [ 36@0 37@0 38@0 39@0 ]  24 -> [ 52@0 53@0 54@0 55@0 ]  28 -> [ 56@0 57@0 58@0 59@0 ]  ], output requests = [ 36 -> [ 0@0 20@0 ]  37 -> [ 0@0 20@0 ]  38 -> [ 0@0 20@0 ]  39 -> [ 0@0 20@0 ]  44 -> [ 4@0 12@0 ]  45 -> [ 4@0 12@0 ]  46 -> [ 4@0 12@0 ]  47 -> [ 4@0 12@0 ]  48 -> [ 16@0 ]  49 -> [ 16@0 ]  50 -> [ 16@0 ]  51 -> [ 16@0 ]  52 -> [ 24@0 ]  53 -> [ 24@0 ]  54 -> [ 24@0 ]  55 -> [ 24@0 ]  56 -> [ 28@0 ]  57 -> [ 28@0 ]  58 -> [ 28@0 ]  59 -> [ 28@0 ]  ].
2 | network_0/router_level3_1/vc_allocator | Input grants = [ 0 -> 36  4 -> 44  16 -> 48  24 -> 52  28 -> 56  ], output grants = [ 36 -> 0  44 -> 4  48 -> 16  52 -> 24  56 -> 28  ].
2 | network_0/router_level3_1 | Assigning VC 0 at output 9 to VC 0 at input 0.
2 | network_0/router_level3_1 | Assigning VC 0 at output 11 to VC 0 at input 1.
2 | network_0/router_level3_1 | VC allocation failed for VC 0 at input 3.
2 | network_0/router_level3_1 | Assigning VC 0 at output 12 to VC 0 at input 4.
2 | network_0/router_level3_1 | VC allocation failed for VC 0 at input 5.
2 | network_0/router_level3_1 | Assigning VC 0 at output 13 to VC 0 at input 6.
2 | network_0/router_level3_1 | Completed VC allocation for VC 0 at input 0 (front: 5).
2 | network_0/router_level3_1 |   Acquiring assigned VC 0 at output 9.
2 | network_0/router_level3_1/buf_0/vc_0 | Changing state from vc_alloc to active.
2 | network_0/router_level3_1 | Completed VC allocation for VC 0 at input 1 (front: 6).
2 | network_0/router_level3_1 |   Acquiring assigned VC 0 at output 11.
2 | network_0/router_level3_1/buf_1/vc_0 | Changing state from vc_alloc to active.
2 | network_0/router_level3_1 | Completed VC allocation for VC 0 at input 3 (front: 7).
2 | network_0/router_level3_1 |   No output VC allocated.
2 | network_0/router_level3_1 | Completed VC allocation for VC 0 at input 4 (front: 8).
2 | network_0/router_level3_1 |   Acquiring assigned VC 0 at output 12.
2 | network_0/router_level3_1/buf_4/vc_0 | Changing state from vc_alloc to active.
2 | network_0/router_level3_1 | Completed VC allocation for VC 0 at input 5 (front: 9).
2 | network_0/router_level3_1 |   No output VC allocated.
2 | network_0/router_level3_1 | Completed VC allocation for VC 0 at input 6 (front: 10).
2 | network_0/router_level3_1 |   Acquiring assigned VC 0 at output 13.
2 | network_0/router_level3_1/buf_6/vc_0 | Changing state from vc_alloc to active.
3 | network_0/router_level3_0 | Beginning switch allocation for VC 0 at input 2 (front: 1).
3 | network_0/router_level3_0 |   Requesting output 8.0 (non-spec, pri: 0).
3 | network_0/router_level3_0 | Beginning switch allocation for VC 0 at input 3 (front: 2).
3 | network_0/router_level3_0 |   Requesting output 12.0 (non-spec, pri: 0).
3 | network_0/router_level3_0 | Beginning switch allocation for VC 0 at input 4 (front: 3).
3 | network_0/router_level3_0 |   Requesting output 11.0 (non-spec, pri: 0).
3 | network_0/router_level3_0 | Beginning switch allocation for VC 0 at input 5 (front: 4).
3 | network_0/router_level3_0 |   Requesting output 15.0 (non-spec, pri: 0).
3 | network_0/router_level3_0/sw_allocator | Input requests = [ 1 -> [ 13@0 ]  2 -> [ 8@0 ]  3 -> [ 12@0 ]  4 -> [ 11@0 ]  5 -> [ 15@0 ]  ], output requests = [ 8 -> [ 2@0 ]  11 -> [ 4@0 ]  12 -> [ 3@0 ]  13 -> [ 1@0 ]  15 -> [ 5@0 ]  ].
3 | network_0/router_level3_0/sw_allocator | Input grants = [ 1 -> 13  2 -> 8  3 -> 12  4 -> 11  5 -> 15  ], output grants = [ 8 -> 2  11 -> 4  12 -> 3  13 -> 1  15 -> 5  ].
3 | network_0/router_level3_0 | Assigning output 8.0 to VC 0 at input 2.0.
3 | network_0/router_level3_0 | Assigning output 12.0 to VC 0 at input 3.0.
3 | network_0/router_level3_0 | Assigning output 11.0 to VC 0 at input 4.0.
3 | network_0/router_level3_0 | Assigning output 15.0 to VC 0 at input 5.0.
3 | network_0/router_level3_0 | Completed switch allocation for VC 0 at input 2 (front: 1).
3 | network_0/router_level3_0 |   Scheduling switch connection from input 2.0 to output 8.0.
3 | network_0/router_level3_0 | Updating lookahead routing information for flit 1.
3 | network_0/router_level3_0 | Completed switch allocation for VC 0 at input 3 (front: 2).
3 | network_0/router_level3_0 |   Scheduling switch connection from input 3.0 to output 12.0.
3 | network_0/router_level3_0 | Updating lookahead routing information for flit 2.
3 | network_0/router_level3_0 | Completed switch allocation for VC 0 at input 4 (front: 3).
3 | network_0/router_level3_0 |   Scheduling switch connection from input 4.0 to output 11.0.
3 | network_0/router_level3_0 | Updating lookahead routing information for flit 3.
3 | network_0/router_level3_0 | Completed switch allocation for VC 0 at input 5 (front: 4).
3 | network_0/router_level3_0 |   Scheduling switch connection from input 5.0 to output 15.0.
3 | network_0/router_level3_0 | Updating lookahead routing information for flit 4.
3 | network_0/router_level3_1 | Beginning VC allocation for VC 0 at input 3 (front: 7).
3 | network_0/router_level3_1 |   VC 0 at output 11 is in use by VC 0 at input 1 (front flit: 6).
3 | network_0/router_level3_1 |   Requesting VC 1 at output 11 (in_pri: 0, out_pri: 0).
3 | network_0/router_level3_1 |   Requesting VC 2 at output 11 (in_pri: 0, out_pri: 0).
3 | network_0/router_level3_1 |   Requesting VC 3 at output 11 (in_pri: 0, out_pri: 0).
3 | network_0/router_level3_1 | Beginning VC allocation for VC 0 at input 5 (front: 9).
3 | network_0/router_level3_1 |   VC 0 at output 9 is in use by VC 0 at input 0 (front flit: 5).
3 | network_0/router_level3_1 |   Requesting VC 1 at output 9 (in_pri: 0, out_pri: 0).
3 | network_0/router_level3_1 |   Requesting VC 2 at output 9 (in_pri: 0, out_pri: 0).
3 | network_0/router_level3_1 |   Requesting VC 3 at output 9 (in_pri: 0, out_pri: 0).
3 | network_0/router_level3_1/vc_allocator | Input requests = [ 5 -> [ 45@0 46@0 47@0 ]  12 -> [ 45@0 46@0 47@0 ]  17 -> [ 49@0 50@0 51@0 ]  20 -> [ 37@0 38@0 39@0 ]  21 -> [ 45@0 46@0 47@0 ]  25 -> [ 37@0 38@0 39@0 ]  ], output requests = [ 37 -> [ 20@0 25@0 ]  38 -> [ 20@0 25@0 ]  39 -> [ 20@0 25@0 ]  45 -> [ 5@0 12@0 21@0 ]  46 -> [ 5@0 12@0 21@0 ]  47 -> [ 5@0 12@0 21@0 ]  49 -> [ 17@0 ]  50 -> [ 17@0 ]  51 -> [ 17@0 ]  ].
3 | network_0/router_level3_1/vc_allocator | Input grants = [ 5 -> 45  17 -> 49  20 -> 37  ], output grants = [ 37 -> 20  45 -> 5  49 -> 17  ].
3 | network_0/router_level3_1 | VC allocation failed for VC 0 at input 3.
3 | network_0/router_level3_1 | Assigning VC 1 at output 9 to VC 0 at input 5.
3 | network_0/router_level3_1 | Beginning switch allocation for VC 0 at input 0 (front: 5).
3 | network_0/router_level3_1 |   Requesting output 9.0 (non-spec, pri: 0).
3 | network_0/router_level3_1 | Beginning switch allocation for VC 0 at input 1 (front: 6).
3 | network_0/router_level3_1 |   Requesting output 11.0 (non-spec, pri: 0).
3 | network_0/router_level3_1 | Beginning switch allocation for VC 0 at input 4 (front: 8).
3 | network_0/router_level3_1 |   Requesting output 12.0 (non-spec, pri: 0).
3 | network_0/router_level3_1 | Beginning switch allocation for VC 0 at input 6 (front: 10).
3 | network_0/router_level3_1 |   Requesting output 13.0 (non-spec, pri: 0).
3 | network_0/router_level3_1/sw_allocator | Input requests = [ 0 -> [ 9@0 ]  1 -> [ 11@0 ]  4 -> [ 12@0 ]  6 -> [ 13@0 ]  7 -> [ 14@0 ]  ], output requests = [ 9 -> [ 0@0 ]  11 -> [ 1@0 ]  12 -> [ 4@0 ]  13 -> [ 6@0 ]  14 -> [ 7@0 ]  ].
3 | network_0/router_level3_1/sw_allocator | Input grants = [ 0 -> 9  1 -> 11  4 -> 12  6 -> 13  7 -> 14  ], output grants = [ 9 -> 0  11 -> 1  12 -> 4  13 -> 6  14 -> 7  ].
3 | network_0/router_level3_1 | Assigning output 9.0 to VC 0 at input 0.0.
3 | network_0/router_level3_1 | Assigning output 11.0 to VC 0 at input 1.0.
3 | network_0/router_level3_1 | Assigning output 12.0 to VC 0 at input 4.0.
3 | network_0/router_level3_1 | Assigning output 13.0 to VC 0 at input 6.0.
3 | network_0/router_level3_1 | Completed VC allocation for VC 0 at input 3 (front: 7).
3 | network_0/router_level3_1 |   No output VC allocated.
3 | network_0/router_level3_1 | Completed VC allocation for VC 0 at input 5 (front: 9).
3 | network_0/router_level3_1 |   Acquiring assigned VC 1 at output 9.
3 | network_0/router_level3_1/buf_5/vc_0 | Changing state from vc_alloc to active.
3 | network_0/router_level3_1 | Completed switch allocation for VC 0 at input 0 (front: 5).
3 | network_0/router_level3_1 |   Scheduling switch connection from input 0.0 to output 9.0.
3 | network_0/router_level3_1 | Updating lookahead routing information for flit 5.
3 | network_0/router_level3_1 | Completed switch allocation for VC 0 at input 1 (front: 6).
3 | network_0/router_level3_1 |   Scheduling switch connection from input 1.0 to output 11.0.
3 | network_0/router_level3_1 | Updating lookahead routing information for flit 6.
3 | network_0/router_level3_1 | Completed switch allocation for VC 0 at input 4 (front: 8).
3 | network_0/router_level3_1 |   Scheduling switch connection from input 4.0 to output 12.0.
3 | network_0/router_level3_1 | Updating lookahead routing information for flit 8.
3 | network_0/router_level3_1 | Completed switch allocation for VC 0 at input 6 (front: 10).
3 | network_0/router_level3_1 |   Scheduling switch connection from input 6.0 to output 13.0.
3 | network_0/router_level3_1 | Updating lookahead routing information for flit 10.
4 | network_0/router_level3_0 | Beginning crossbar traversal for flit 1 from input 2.0 to output 8.0.
4 | network_0/router_level3_0 | Beginning crossbar traversal for flit 2 from input 3.0 to output 12.0.
4 | network_0/router_level3_0 | Beginning crossbar traversal for flit 3 from input 4.0 to output 11.0.
4 | network_0/router_level3_0 | Beginning crossbar traversal for flit 4 from input 5.0 to output 15.0.
4 | network_0/router_level3_0 | Completed crossbar traversal for flit 1 from input 2.0 to output 8.0.
4 | network_0/router_level3_0 | Buffering flit 1 at output 8.
4 | network_0/router_level3_0 | Completed crossbar traversal for flit 2 from input 3.0 to output 12.0.
4 | network_0/router_level3_0 | Buffering flit 2 at output 12.
4 | network_0/router_level3_0 | Completed crossbar traversal for flit 3 from input 4.0 to output 11.0.
4 | network_0/router_level3_0 | Buffering flit 3 at output 11.
4 | network_0/router_level3_0 | Completed crossbar traversal for flit 4 from input 5.0 to output 15.0.
4 | network_0/router_level3_0 | Buffering flit 4 at output 15.
4 | network_0/router_level3_1 | Beginning VC allocation for VC 0 at input 3 (front: 7).
4 | network_0/router_level3_1 |   Requesting VC 0 at output 11 (in_pri: 0, out_pri: 0).
4 | network_0/router_level3_1 |   VC 1 at output 11 is in use by VC 1 at input 1 (front flit: 3058).
4 | network_0/router_level3_1 |   Requesting VC 2 at output 11 (in_pri: 0, out_pri: 0).
4 | network_0/router_level3_1 |   Requesting VC 3 at output 11 (in_pri: 0, out_pri: 0).
4 | network_0/router_level3_1/vc_allocator | Input requests = [ 1 -> [ 32@0 33@0 34@0 35@0 ]  6 -> [ 60@0 61@0 62@0 63@0 ]  12 -> [ 44@0 46@0 47@0 ]  13 -> [ 40@0 41@0 42@0 43@0 ]  18 -> [ 48@0 50@0 51@0 ]  21 -> [ 44@0 46@0 47@0 ]  22 -> [ 60@0 61@0 62@0 63@0 ]  25 -> [ 36@0 38@0 39@0 ]  ], output requests = [ 32 -> [ 1@0 ]  33 -> [ 1@0 ]  34 -> [ 1@0 ]  35 -> [ 1@0 ]  36 -> [ 25@0 ]  38 -> [ 25@0 ]  39 -> [ 25@0 ]  40 -> [ 13@0 ]  41 -> [ 13@0 ]  42 -> [ 13@0 ]  43 -> [ 13@0 ]  44 -> [ 12@0 21@0 ]  46 -> [ 12@0 21@0 ]  47 -> [ 12@0 21@0 ]  48 -> [ 18@0 ]  50 -> [ 18@0 ]  51 -> [ 18@0 ]  60 -> [ 6@0 22@0 ]  61 -> [ 6@0 22@0 ]  62 -> [ 6@0 22@0 ]  63 -> [ 6@0 22@0 ]  ].
4 | network_0/router_level3_1/vc_allocator | Input grants = [ 1 -> 32  6 -> 60  12 -> 44  13 -> 40  18 -> 48  25 -> 36  ], output grants = [ 32 -> 1  36 -> 25  40 -> 13  44 -> 12  48 -> 18  60 -> 6  ].
4 | network_0/router_level3_1 | Assigning VC 0 at output 11 to VC 0 at input 3.
4 | network_0/router_level3_1 | Beginning switch allocation for VC 0 at input 5 (front: 9).
4 | network_0/router_level3_1 |   Requesting output 9.0 (non-spec, pri: 0).
4 | network_0/router_level3_1/sw_allocator | Input requests = [ 1 -> [ 11@0 ]  4 -> [ 12@0 ]  5 -> [ 9@0 ]  ], output requests = [ 9 -> [ 5@0 ]  11 -> [ 1@0 ]  12 -> [ 4@0 ]  ].
4 | network_0/router_level3_1/sw_allocator | Input grants = [ 1 -> 11  4 -> 12  5 -> 9  ], output grants = [ 9 -> 5  11 -> 1  12 -> 4  ].
4 | network_0/router_level3_1 | Assigning output 9.0 to VC 0 at input 5.0.
4 | network_0/router_level3_1 | Beginning crossbar traversal for flit 5 from input 0.0 to output 9.0.
4 | network_0/router_level3_1 | Beginning crossbar traversal for flit 6 from input 1.0 to output 11.0.
4 | network_0/router_level3_1 | Beginning crossbar traversal for flit 8 from input 4.0 to output 12.0.
4 | network_0/router_level3_1 | Beginning crossbar traversal for flit 10 from input 6.0 to output 13.0.
4 | network_0/router_level3_1 | Completed VC allocation for VC 0 at input 3 (front: 7).
4 | network_0/router_level3_1 |   Acquiring assigned VC 0 at output 11.
4 | network_0/router_level3_1/buf_3/vc_0 | Changing state from vc_alloc to active.
4 | network_0/router_level3_1 | Completed switch allocation for VC 0 at input 5 (front: 9).
4 | network_0/router_level3_1 |   Scheduling switch connection from input 5.0 to output 9.0.
4 | network_0/router_level3_1 | Updating lookahead routing information for flit 9.
4 | network_0/router_level3_1 | Completed crossbar traversal for flit 5 from input 0.0 to output 9.0.
4 | network_0/router_level3_1 | Buffering flit 5 at output 9.
4 | network_0/router_level3_1 | Completed crossbar traversal for flit 6 from input 1.0 to output 11.0.
4 | network_0/router_level3_1 | Buffering flit 6 at output 11.
4 | network_0/router_level3_1 | Completed crossbar traversal for flit 8 from input 4.0 to output 12.0.
4 | network_0/router_level3_1 | Buffering flit 8 at output 12.
4 | network_0/router_level3_1 | Completed crossbar traversal for flit 10 from input 6.0 to output 13.0.
4 | network_0/router_level3_1 | Buffering flit 10 at output 13.
4 | network_0/router_level3_0 | Sending flit 1 to channel at output 8.
4 | network_0/router_level3_0 | Sending flit 3 to channel at output 11.
4 | network_0/router_level3_0 | Sending flit 2 to channel at output 12.
4 | network_0/router_level3_0 | Sending flit 4 to channel at output 15.
4 | network_0/router_level3_1 | Sending flit 5 to channel at output 9.
4 | network_0/router_level3_1 | Sending flit 6 to channel at output 11.
4 | network_0/router_level3_1 | Sending flit 8 to channel at output 12.
4 | network_0/router_level3_1 | Sending flit 10 to channel at output 13.
5 | network_0/network_0_fchan_20480 | Beginning channel traversal for flit 1 with delay 1.
5 | network_0/network_0_fchan_20483 | Beginning channel traversal for flit 3 with delay 1.
5 | network_0/network_0_fchan_20484 | Beginning channel traversal for flit 2 with delay 1.
5 | network_0/network_0_fchan_20487 | Beginning channel traversal for flit 4 with delay 1.
5 | network_0/network_0_fchan_20489 | Beginning channel traversal for flit 5 with delay 1.
5 | network_0/network_0_fchan_20491 | Beginning channel traversal for flit 6 with delay 1.
5 | network_0/network_0_fchan_20492 | Beginning channel traversal for flit 8 with delay 1.
5 | network_0/network_0_fchan_20493 | Beginning channel traversal for flit 10 with delay 1.
5 | network_0/router_level3_1 | Beginning switch allocation for VC 0 at input 3 (front: 7).
5 | network_0/router_level3_1 |   Requesting output 11.0 (non-spec, pri: 0).
5 | network_0/router_level3_1/sw_allocator | Input requests = [ 0 -> [ 8@0 ]  1 -> [ 15@0 ]  3 -> [ 10@0 11@0 ]  4 -> [ 12@0 ]  6 -> [ 9@0 ]  ], output requests = [ 8 -> [ 0@0 ]  9 -> [ 6@0 ]  10 -> [ 3@0 ]  11 -> [ 3@0 ]  12 -> [ 4@0 ]  15 -> [ 1@0 ]  ].
5 | network_0/router_level3_1/sw_allocator | Input grants = [ 0 -> 8  1 -> 15  3 -> 10  4 -> 12  6 -> 9  ], output grants = [ 8 -> 0  9 -> 6  10 -> 3  12 -> 4  15 -> 1  ].
5 | network_0/router_level3_1 | Switch allocation failed for VC 0 at input 3: Granted to VC 1.
5 | network_0/router_level3_1 | Beginning crossbar traversal for flit 9 from input 5.0 to output 9.0.
5 | network_0/router_level3_1 | Completed switch allocation for VC 0 at input 3 (front: 7).
5 | network_0/router_level3_1 |   No output port allocated.
5 | network_0/router_level3_1 | Completed crossbar traversal for flit 9 from input 5.0 to output 9.0.
5 | network_0/router_level3_1 | Buffering flit 9 at output 9.
5 | network_0/network_0_fchan_20480 | Completed channel traversal for flit 1.
5 | network_0/network_0_fchan_20483 | Completed channel traversal for flit 3.
5 | network_0/network_0_fchan_20484 | Completed channel traversal for flit 2.
5 | network_0/network_0_fchan_20487 | Completed channel traversal for flit 4.
5 | network_0/network_0_fchan_20489 | Completed channel traversal for flit 5.
5 | network_0/network_0_fchan_20491 | Completed channel traversal for flit 6.
5 | network_0/network_0_fchan_20492 | Completed channel traversal for flit 8.
5 | network_0/network_0_fchan_20493 | Completed channel traversal for flit 10.
5 | network_0/router_level3_1 | Sending flit 9 to channel at output 9.
6 | network_0/network_0_fchan_20489 | Beginning channel traversal for flit 9 with delay 1.
6 | network_0/router_level2_0 | Received flit 1 from channel at input 0.
6 | network_0/router_level2_1 | Received flit 5 from channel at input 1.
6 | network_0/router_level2_3 | Received flit 3 from channel at input 0.
6 | network_0/router_level2_3 | Received flit 6 from channel at input 1.
6 | network_0/router_level2_4 | Received flit 2 from channel at input 0.
6 | network_0/router_level2_4 | Received flit 8 from channel at input 1.
6 | network_0/router_level2_5 | Received flit 10 from channel at input 1.
6 | network_0/router_level2_7 | Received flit 4 from channel at input 0.
6 | network_0/router_level2_0 | Adding flit 1 to VC 0 at input 0 (state: idle, empty).
6 | network_0/router_level2_0 | Using precomputed lookahead routing information for VC 0 at input 0 (front: 1).
6 | network_0/router_level2_0/buf_0/vc_0 | Changing state from idle to vc_alloc.
6 | network_0/router_level2_0 | Beginning VC allocation for VC 0 at input 0 (front: 1).
6 | network_0/router_level2_0 |   Requesting VC 0 at output 12 (in_pri: 0, out_pri: 0).
6 | network_0/router_level2_0 |   Requesting VC 1 at output 12 (in_pri: 0, out_pri: 0).
6 | network_0/router_level2_0 |   Requesting VC 2 at output 12 (in_pri: 0, out_pri: 0).
6 | network_0/router_level2_0 |   Requesting VC 3 at output 12 (in_pri: 0, out_pri: 0).
6 | network_0/router_level2_0/vc_allocator | Input requests = [ 0 -> [ 48@0 49@0 50@0 51@0 ]  8 -> [ 56@0 57@0 58@0 59@0 ]  16 -> [ 52@0 53@0 54@0 55@0 ]  20 -> [ 56@0 57@0 58@0 59@0 ]  28 -> [ 44@0 45@0 46@0 47@0 ]  ], output requests = [ 44 -> [ 28@0 ]  45 -> [ 28@0 ]  46 -> [ 28@0 ]  47 -> [ 28@0 ]  48 -> [ 0@0 ]  49 -> [ 0@0 ]  50 -> [ 0@0 ]  51 -> [ 0@0 ]  52 -> [ 16@0 ]  53 -> [ 16@0 ]  54 -> [ 16@0 ]  55 -> [ 16@0 ]  56 -> [ 8@0 20@0 ]  57 -> [ 8@0 20@0 ]  58 -> [ 8@0 20@0 ]  59 -> [ 8@0 20@0 ]  ].
6 | network_0/router_level2_0/vc_allocator | Input grants = [ 0 -> 48  8 -> 56  16 -> 52  28 -> 44  ], output grants = [ 44 -> 28  48 -> 0  52 -> 16  56 -> 8  ].
6 | network_0/router_level2_0 | Assigning VC 0 at output 12 to VC 0 at input 0.
6 | network_0/router_level2_0 | Completed VC allocation for VC 0 at input 0 (front: 1).
6 | network_0/router_level2_0 |   Acquiring assigned VC 0 at output 12.
6 | network_0/router_level2_0/buf_0/vc_0 | Changing state from vc_alloc to active.
6 | network_0/router_level2_1 | Adding flit 5 to VC 0 at input 1 (state: idle, empty).
6 | network_0/router_level2_1 | Using precomputed lookahead routing information for VC 0 at input 1 (front: 5).
6 | network_0/router_level2_1/buf_1/vc_0 | Changing state from idle to vc_alloc.
6 | network_0/router_level2_1 | Beginning VC allocation for VC 0 at input 1 (front: 5).
6 | network_0/router_level2_1 |   Requesting VC 0 at output 14 (in_pri: 0, out_pri: 0).
6 | network_0/router_level2_1 |   Requesting VC 1 at output 14 (in_pri: 0, out_pri: 0).
6 | network_0/router_level2_1 |   Requesting VC 2 at output 14 (in_pri: 0, out_pri: 0).
6 | network_0/router_level2_1 |   Requesting VC 3 at output 14 (in_pri: 0, out_pri: 0).
6 | network_0/router_level2_1/vc_allocator | Input requests = [ 4 -> [ 56@0 57@0 58@0 59@0 ]  20 -> [ 52@0 53@0 54@0 55@0 ]  28 -> [ 52@0 53@0 54@0 55@0 ]  ], output requests = [ 52 -> [ 20@0 28@0 ]  53 -> [ 20@0 28@0 ]  54 -> [ 20@0 28@0 ]  55 -> [ 20@0 28@0 ]  56 -> [ 4@0 ]  57 -> [ 4@0 ]  58 -> [ 4@0 ]  59 -> [ 4@0 ]  ].
6 | network_0/router_level2_1/vc_allocator | Input grants = [ 4 -> 56  20 -> 52  ], output grants = [ 52 -> 20  56 -> 4  ].
6 | network_0/router_level2_1 | Assigning VC 0 at output 14 to VC 0 at input 1.
6 | network_0/router_level2_1 | Completed VC allocation for VC 0 at input 1 (front: 5).
6 | network_0/router_level2_1 |   Acquiring assigned VC 0 at output 14.
6 | network_0/router_level2_1/buf_1/vc_0 | Changing state from vc_alloc to active.
6 | network_0/router_level2_3 | Adding flit 3 to VC 0 at input 0 (state: idle, empty).
6 | network_0/router_level2_3 | Using precomputed lookahead routing information for VC 0 at input 0 (front: 3).
6 | network_0/router_level2_3/buf_0/vc_0 | Changing state from idle to vc_alloc.
6 | network_0/router_level2_3 | Adding flit 6 to VC 0 at input 1 (state: idle, empty).
6 | network_0/router_level2_3 | Using precomputed lookahead routing information for VC 0 at input 1 (front: 6).
6 | network_0/router_level2_3/buf_1/vc_0 | Changing state from idle to vc_alloc.
6 | network_0/router_level2_3 | Beginning VC allocation for VC 0 at input 0 (front: 3).
6 | network_0/router_level2_3 |   Requesting VC 0 at output 9 (in_pri: 0, out_pri: 0).
6 | network_0/router_level2_3 |   Requesting VC 1 at output 9 (in_pri: 0, out_pri: 0).
6 | network_0/router_level2_3 |   Requesting VC 2 at output 9 (in_pri: 0, out_pri: 0).
6 | network_0/router_level2_3 |   Requesting VC 3 at output 9 (in_pri: 0, out_pri: 0).
6 | network_0/router_level2_3 | Beginning VC allocation for VC 0 at input 1 (front: 6).
6 | network_0/router_level2_3 |   Requesting VC 0 at output 11 (in_pri: 0, out_pri: 0).
6 | network_0/router_level2_3 |   Requesting VC 1 at output 11 (in_pri: 0, out_pri: 0).
6 | network_0/router_level2_3 |   Requesting VC 2 at output 11 (in_pri: 0, out_pri: 0).
6 | network_0/router_level2_3 |   Requesting VC 3 at output 11 (in_pri: 0, out_pri: 0).
6 | network_0/router_level2_3/vc_allocator | Input requests = [ 0 -> [ 36@0 37@0 38@0 39@0 ]  4 -> [ 44@0 45@0 46@0 47@0 ]  8 -> [ 32@0 33@0 34@0 35@0 ]  12 -> [ 56@0 57@0 58@0 59@0 ]  20 -> [ 56@0 57@0 58@0 59@0 ]  24 -> [ 60@0 61@0 62@0 63@0 ]  28 -> [ 52@0 53@0 54@0 55@0 ]  ], output requests = [ 32 -> [ 8@0 ]  33 -> [ 8@0 ]  34 -> [ 8@0 ]  35 -> [ 8@0 ]  36 -> [ 0@0 ]  37 -> [ 0@0 ]  38 -> [ 0@0 ]  39 -> [ 0@0 ]  44 -> [ 4@0 ]  45 -> [ 4@0 ]  46 -> [ 4@0 ]  47 -> [ 4@0 ]  52 -> [ 28@0 ]  53 -> [ 28@0 ]  54 -> [ 28@0 ]  55 -> [ 28@0 ]  56 -> [ 12@0 20@0 ]  57 -> [ 12@0 20@0 ]  58 -> [ 12@0 20@0 ]  59 -> [ 12@0 20@0 ]  60 -> [ 24@0 ]  61 -> [ 24@0 ]  62 -> [ 24@0 ]  63 -> [ 24@0 ]  ].
6 | network_0/router_level2_3/vc_allocator | Input grants = [ 0 -> 36  4 -> 44  8 -> 32  12 -> 56  24 -> 60  28 -> 52  ], output grants = [ 32 -> 8  36 -> 0  44 -> 4  52 -> 28  56 -> 12  60 -> 24  ].
6 | network_0/router_level2_3 | Assigning VC 0 at output 9 to VC 0 at input 0.
6 | network_0/router_level2_3 | Assigning VC 0 at output 11 to VC 0 at input 1.
6 | network_0/router_level2_3 | Completed VC allocation for VC 0 at input 0 (front: 3).
6 | network_0/router_level2_3 |   Acquiring assigned VC 0 at output 9.
6 | network_0/router_level2_3/buf_0/vc_0 | Changing state from vc_alloc to active.
6 | network_0/router_level2_3 | Completed VC allocation for VC 0 at input 1 (front: 6).
6 | network_0/router_level2_3 |   Acquiring assigned VC 0 at output 11.
6 | network_0/router_level2_3/buf_1/vc_0 | Changing state from vc_alloc to active.
6 | network_0/router_level2_4 | Adding flit 2 to VC 0 at input 0 (state: idle, empty).
6 | network_0/router_level2_4 | Using precomputed lookahead routing information for VC 0 at input 0 (front: 2).
6 | network_0/router_level2_4/buf_0/vc_0 | Changing state from idle to vc_alloc.
6 | network_0/router_level2_4 | Adding flit 8 to VC 0 at input 1 (state: idle, empty).
6 | network_0/router_level2_4 | Using precomputed lookahead routing information for VC 0 at input 1 (front: 8).
6 | network_0/router_level2_4/buf_1/vc_0 | Changing state from idle to vc_alloc.
6 | network_0/router_level2_4 | Beginning VC allocation for VC 0 at input 0 (front: 2).
6 | network_0/router_level2_4 |   Requesting VC 0 at output 12 (in_pri: 0, out_pri: 0).
6 | network_0/router_level2_4 |   Requesting VC 1 at output 12 (in_pri: 0, out_pri: 0).
6 | network_0/router_level2_4 |   Requesting VC 2 at output 12 (in_pri: 0, out_pri: 0).
6 | network_0/router_level2_4 |   Requesting VC 3 at output 12 (in_pri: 0, out_pri: 0).
6 | network_0/router_level2_4 | Beginning VC allocation for VC 0 at input 1 (front: 8).
6 | network_0/router_level2_4 |   Requesting VC 0 at output 10 (in_pri: 0, out_pri: 0).
6 | network_0/router_level2_4 |   Requesting VC 1 at output 10 (in_pri: 0, out_pri: 0).
6 | network_0/router_level2_4 |   Requesting VC 2 at output 10 (in_pri: 0, out_pri: 0).
6 | network_0/router_level2_4 |   Requesting VC 3 at output 10 (in_pri: 0, out_pri: 0).
6 | network_0/router_level2_4/vc_allocator | Input requests = [ 0 -> [ 48@0 49@0 50@0 51@0 ]  4 -> [ 40@0 41@0 42@0 43@0 ]  8 -> [ 32@0 33@0 34@0 35@0 ]  20 -> [ 48@0 49@0 50@0 51@0 ]  24 -> [ 40@0 41@0 42@0 43@0 ]  ], output requests = [ 32 -> [ 8@0 ]  33 -> [ 8@0 ]  34 -> [ 8@0 ]  35 -> [ 8@0 ]  40 -> [ 4@0 24@0 ]  41 -> [ 4@0 24@0 ]  42 -> [ 4@0 24@0 ]  43 -> [ 4@0 24@0 ]  48 -> [ 0@0 20@0 ]  49 -> [ 0@0 20@0 ]  50 -> [ 0@0 20@0 ]  51 -> [ 0@0 20@0 ]  ].
6 | network_0/router_level2_4/vc_allocator | Input grants = [ 0 -> 48  4 -> 40  8 -> 32  ], output grants = [ 32 -> 8  40 -> 4  48 -> 0  ].
6 | network_0/router_level2_4 | Assigning VC 0 at output 12 to VC 0 at input 0.
6 | network_0/router_level2_4 | Assigning VC 0 at output 10 to VC 0 at input 1.
6 | network_0/router_level2_4 | Completed VC allocation for VC 0 at input 0 (front: 2).
6 | network_0/router_level2_4 |   Acquiring assigned VC 0 at output 12.
6 | network_0/router_level2_4/buf_0/vc_0 | Changing state from vc_alloc to active.
6 | network_0/router_level2_4 | Completed VC allocation for VC 0 at input 1 (front: 8).
6 | network_0/router_level2_4 |   Acquiring assigned VC 0 at output 10.
6 | network_0/router_level2_4/buf_1/vc_0 | Changing state from vc_alloc to active.
6 | network_0/router_level2_5 | Adding flit 10 to VC 0 at input 1 (state: idle, empty).
6 | network_0/router_level2_5 | Using precomputed lookahead routing information for VC 0 at input 1 (front: 10).
6 | network_0/router_level2_5/buf_1/vc_0 | Changing state from idle to vc_alloc.
6 | network_0/router_level2_5 | Beginning VC allocation for VC 0 at input 1 (front: 10).
6 | network_0/router_level2_5 |   Requesting VC 0 at output 13 (in_pri: 0, out_pri: 0).
6 | network_0/router_level2_5 |   Requesting VC 1 at output 13 (in_pri: 0, out_pri: 0).
6 | network_0/router_level2_5 |   Requesting VC 2 at output 13 (in_pri: 0, out_pri: 0).
6 | network_0/router_level2_5 |   Requesting VC 3 at output 13 (in_pri: 0, out_pri: 0).
6 | network_0/router_level2_5/vc_allocator | Input requests = [ 0 -> [ 32@0 33@0 34@0 35@0 ]  4 -> [ 52@0 53@0 54@0 55@0 ]  8 -> [ 56@0 57@0 58@0 59@0 ]  20 -> [ 40@0 41@0 42@0 43@0 ]  ], output requests = [ 32 -> [ 0@0 ]  33 -> [ 0@0 ]  34 -> [ 0@0 ]  35 -> [ 0@0 ]  40 -> [ 20@0 ]  41 -> [ 20@0 ]  42 -> [ 20@0 ]  43 -> [ 20@0 ]  52 -> [ 4@0 ]  53 -> [ 4@0 ]  54 -> [ 4@0 ]  55 -> [ 4@0 ]  56 -> [ 8@0 ]  57 -> [ 8@0 ]  58 -> [ 8@0 ]  59 -> [ 8@0 ]  ].
6 | network_0/router_level2_5/vc_allocator | Input grants = [ 0 -> 32  4 -> 52  8 -> 56  20 -> 40  ], output grants = [ 32 -> 0  40 -> 20  52 -> 4  56 -> 8  ].
6 | network_0/router_level2_5 | Assigning VC 0 at output 13 to VC 0 at input 1.
6 | network_0/router_level2_5 | Completed VC allocation for VC 0 at input 1 (front: 10).
6 | network_0/router_level2_5 |   Acquiring assigned VC 0 at output 13.
6 | network_0/router_level2_5/buf_1/vc_0 | Changing state from vc_alloc to active.
6 | network_0/router_level2_7 | Adding flit 4 to VC 0 at input 0 (state: idle, empty).
6 | network_0/router_level2_7 | Using precomputed lookahead routing information for VC 0 at input 0 (front: 4).
6 | network_0/router_level2_7/buf_0/vc_0 | Changing state from idle to vc_alloc.
6 | network_0/router_level2_7 | Beginning VC allocation for VC 0 at input 0 (front: 4).
6 | network_0/router_level2_7 |   Requesting VC 0 at output 8 (in_pri: 0, out_pri: 0).
6 | network_0/router_level2_7 |   Requesting VC 1 at output 8 (in_pri: 0, out_pri: 0).
6 | network_0/router_level2_7 |   Requesting VC 2 at output 8 (in_pri: 0, out_pri: 0).
6 | network_0/router_level2_7 |   Requesting VC 3 at output 8 (in_pri: 0, out_pri: 0).
6 | network_0/router_level2_7/vc_allocator | Input requests = [ 0 -> [ 32@0 33@0 34@0 35@0 ]  12 -> [ 36@0 37@0 38@0 39@0 ]  ], output requests = [ 32 -> [ 0@0 ]  33 -> [ 0@0 ]  34 -> [ 0@0 ]  35 -> [ 0@0 ]  36 -> [ 12@0 ]  37 -> [ 12@0 ]  38 -> [ 12@0 ]  39 -> [ 12@0 ]  ].
6 | network_0/router_level2_7/vc_allocator | Input grants = [ 0 -> 32  12 -> 36  ], output grants = [ 32 -> 0  36 -> 12  ].
6 | network_0/router_level2_7 | Assigning VC 0 at output 8 to VC 0 at input 0.
6 | network_0/router_level2_7 | Completed VC allocation for VC 0 at input 0 (front: 4).
6 | network_0/router_level2_7 |   Acquiring assigned VC 0 at output 8.
6 | network_0/router_level2_7/buf_0/vc_0 | Changing state from vc_alloc to active.
6 | network_0/router_level3_1 | Beginning switch allocation for VC 0 at input 3 (front: 7).
6 | network_0/router_level3_1 |   Requesting output 11.0 (non-spec, pri: 0).
6 | network_0/router_level3_1/sw_allocator | Input requests = [ 0 -> [ 13@0 ]  1 -> [ 14@0 ]  2 -> [ 8@0 ]  3 -> [ 11@0 ]  4 -> [ 9@0 ]  5 -> [ 11@0 15@0 ]  ], output requests = [ 8 -> [ 2@0 ]  9 -> [ 4@0 ]  11 -> [ 3@0 5@0 ]  13 -> [ 0@0 ]  14 -> [ 1@0 ]  15 -> [ 5@0 ]  ].
6 | network_0/router_level3_1/sw_allocator | Input grants = [ 0 -> 13  1 -> 14  2 -> 8  3 -> 11  4 -> 9  ], output grants = [ 8 -> 2  9 -> 4  11 -> 3  13 -> 0  14 -> 1  ].
6 | network_0/router_level3_1 | Assigning output 11.0 to VC 0 at input 3.0.
6 | network_0/router_level3_1 | Completed switch allocation for VC 0 at input 3 (front: 7).
6 | network_0/router_level3_1 |   Scheduling switch connection from input 3.0 to output 11.0.
6 | network_0/router_level3_1 | Updating lookahead routing information for flit 7.
6 | network_0/network_0_fchan_20489 | Completed channel traversal for flit 9.
7 | network_0/router_level2_1 | Received flit 9 from channel at input 1.
7 | network_0/router_level2_0 | Beginning switch allocation for VC 0 at input 0 (front: 1).
7 | network_0/router_level2_0 |   Requesting output 12.0 (non-spec, pri: 0).
7 | network_0/router_level2_0/sw_allocator | Input requests = [ 0 -> [ 12@0 ]  2 -> [ 14@0 ]  4 -> [ 13@0 ]  7 -> [ 11@0 ]  ], output requests = [ 11 -> [ 7@0 ]  12 -> [ 0@0 ]  13 -> [ 4@0 ]  14 -> [ 2@0 ]  ].
7 | network_0/router_level2_0/sw_allocator | Input grants = [ 0 -> 12  2 -> 14  4 -> 13  7 -> 11  ], output grants = [ 11 -> 7  12 -> 0  13 -> 4  14 -> 2  ].
7 | network_0/router_level2_0 | Assigning output 12.0 to VC 0 at input 0.0.
7 | network_0/router_level2_0 | Completed switch allocation for VC 0 at input 0 (front: 1).
7 | network_0/router_level2_0 |   Scheduling switch connection from input 0.0 to output 12.0.
7 | network_0/router_level2_0 | Updating lookahead routing information for flit 1.
7 | network_0/router_level2_1 | Adding flit 9 to VC 1 at input 1 (state: idle, empty).
7 | network_0/router_level2_1 | Using precomputed lookahead routing information for VC 1 at input 1 (front: 9).
7 | network_0/router_level2_1/buf_1/vc_1 | Changing state from idle to vc_alloc.
7 | network_0/router_level2_1 | Beginning VC allocation for VC 1 at input 1 (front: 9).
7 | network_0/router_level2_1 |   Requesting VC 0 at output 11 (in_pri: 0, out_pri: 0).
7 | network_0/router_level2_1 |   Requesting VC 1 at output 11 (in_pri: 0, out_pri: 0).
7 | network_0/router_level2_1 |   Requesting VC 2 at output 11 (in_pri: 0, out_pri: 0).
7 | network_0/router_level2_1 |   Requesting VC 3 at output 11 (in_pri: 0, out_pri: 0).
7 | network_0/router_level2_1/vc_allocator | Input requests = [ 0 -> [ 44@0 45@0 46@0 47@0 ]  5 -> [ 44@0 45@0 46@0 47@0 ]  16 -> [ 44@0 45@0 46@0 47@0 ]  21 -> [ 60@0 61@0 62@0 63@0 ]  24 -> [ 48@0 49@0 50@0 51@0 ]  28 -> [ 53@0 54@0 55@0 ]  ], output requests = [ 44 -> [ 0@0 5@0 16@0 ]  45 -> [ 0@0 5@0 16@0 ]  46 -> [ 0@0 5@0 16@0 ]  47 -> [ 0@0 5@0 16@0 ]  48 -> [ 24@0 ]  49 -> [ 24@0 ]  50 -> [ 24@0 ]  51 -> [ 24@0 ]  53 -> [ 28@0 ]  54 -> [ 28@0 ]  55 -> [ 28@0 ]  60 -> [ 21@0 ]  61 -> [ 21@0 ]  62 -> [ 21@0 ]  63 -> [ 21@0 ]  ].
7 | network_0/router_level2_1/vc_allocator | Input grants = [ 0 -> 44  21 -> 60  24 -> 48  28 -> 53  ], output grants = [ 44 -> 0  48 -> 24  53 -> 28  60 -> 21  ].
7 | network_0/router_level2_1 | VC allocation failed for VC 1 at input 1.
7 | network_0/router_level2_1 | Beginning switch allocation for VC 0 at input 1 (front: 5).
7 | network_0/router_level2_1 |   Requesting output 14.0 (non-spec, pri: 0).
7 | network_0/router_level2_1/sw_allocator | Input requests = [ 1 -> [ 14@0 ]  5 -> [ 13@0 ]  ], output requests = [ 13 -> [ 5@0 ]  14 -> [ 1@0 ]  ].
7 | network_0/router_level2_1/sw_allocator | Input grants = [ 1 -> 14  5 -> 13  ], output grants = [ 13 -> 5  14 -> 1  ].
7 | network_0/router_level2_1 | Assigning output 14.0 to VC 0 at input 1.0.
7 | network_0/router_level2_1 | Completed VC allocation for VC 1 at input 1 (front: 9).
7 | network_0/router_level2_1 |   No output VC allocated.
7 | network_0/router_level2_1 | Completed switch allocation for VC 0 at input 1 (front: 5).
7 | network_0/router_level2_1 |   Scheduling switch connection from input 1.0 to output 14.0.
7 | network_0/router_level2_1 | Updating lookahead routing information for flit 5.
7 | network_0/router_level2_3 | Beginning switch allocation for VC 0 at input 0 (front: 3).
7 | network_0/router_level2_3 |   Requesting output 9.0 (non-spec, pri: 0).
7 | network_0/router_level2_3 | Beginning switch allocation for VC 0 at input 1 (front: 6).
7 | network_0/router_level2_3 |   Requesting output 11.0 (non-spec, pri: 0).
7 | network_0/router_level2_3/sw_allocator | Input requests = [ 0 -> [ 9@0 ]  1 -> [ 11@0 ]  2 -> [ 8@0 ]  3 -> [ 14@0 ]  6 -> [ 15@0 ]  7 -> [ 13@0 ]  ], output requests = [ 8 -> [ 2@0 ]  9 -> [ 0@0 ]  11 -> [ 1@0 ]  13 -> [ 7@0 ]  14 -> [ 3@0 ]  15 -> [ 6@0 ]  ].
7 | network_0/router_level2_3/sw_allocator | Input grants = [ 0 -> 9  1 -> 11  2 -> 8  3 -> 14  6 -> 15  7 -> 13  ], output grants = [ 8 -> 2  9 -> 0  11 -> 1  13 -> 7  14 -> 3  15 -> 6  ].
7 | network_0/router_level2_3 | Assigning output 9.0 to VC 0 at input 0.0.
7 | network_0/router_level2_3 | Assigning output 11.0 to VC 0 at input 1.0.
7 | network_0/router_level2_3 | Completed switch allocation for VC 0 at input 0 (front: 3).
7 | network_0/router_level2_3 |   Scheduling switch connection from input 0.0 to output 9.0.
7 | network_0/router_level2_3 | Updating lookahead routing information for flit 3.
7 | network_0/router_level2_3 | Completed switch allocation for VC 0 at input 1 (front: 6).
7 | network_0/router_level2_3 |   Scheduling switch connection from input 1.0 to output 11.0.
7 | network_0/router_level2_3 | Updating lookahead routing information for flit 6.
7 | network_0/router_level2_4 | Beginning switch allocation for VC 0 at input 0 (front: 2).
7 | network_0/router_level2_4 |   Requesting output 12.0 (non-spec, pri: 0).
7 | network_0/router_level2_4 | Beginning switch allocation for VC 0 at input 1 (front: 8).
7 | network_0/router_level2_4 |   Requesting output 10.0 (non-spec, pri: 0).
7 | network_0/router_level2_4/sw_allocator | Input requests = [ 0 -> [ 12@0 ]  1 -> [ 10@0 ]  2 -> [ 8@0 ]  ], output requests = [ 8 -> [ 2@0 ]  10 -> [ 1@0 ]  12 -> [ 0@0 ]  ].
7 | network_0/router_level2_4/sw_allocator | Input grants = [ 0 -> 12  1 -> 10  2 -> 8  ], output grants = [ 8 -> 2  10 -> 1  12 -> 0  ].
7 | network_0/router_level2_4 | Assigning output 12.0 to VC 0 at input 0.0.
7 | network_0/router_level2_4 | Assigning output 10.0 to VC 0 at input 1.0.
7 | network_0/router_level2_4 | Completed switch allocation for VC 0 at input 0 (front: 2).
7 | network_0/router_level2_4 |   Scheduling switch connection from input 0.0 to output 12.0.
7 | network_0/router_level2_4 | Updating lookahead routing information for flit 2.
7 | network_0/router_level2_4 | Completed switch allocation for VC 0 at input 1 (front: 8).
7 | network_0/router_level2_4 |   Scheduling switch connection from input 1.0 to output 10.0.
7 | network_0/router_level2_4 | Updating lookahead routing information for flit 8.
7 | network_0/router_level2_5 | Beginning switch allocation for VC 0 at input 1 (front: 10).
7 | network_0/router_level2_5 |   Requesting output 13.0 (non-spec, pri: 0).
7 | network_0/router_level2_5/sw_allocator | Input requests = [ 0 -> [ 8@0 ]  1 -> [ 13@0 ]  2 -> [ 14@0 ]  5 -> [ 10@0 ]  ], output requests = [ 8 -> [ 0@0 ]  10 -> [ 5@0 ]  13 -> [ 1@0 ]  14 -> [ 2@0 ]  ].
7 | network_0/router_level2_5/sw_allocator | Input grants = [ 0 -> 8  1 -> 13  2 -> 14  5 -> 10  ], output grants = [ 8 -> 0  10 -> 5  13 -> 1  14 -> 2  ].
7 | network_0/router_level2_5 | Assigning output 13.0 to VC 0 at input 1.0.
7 | network_0/router_level2_5 | Completed switch allocation for VC 0 at input 1 (front: 10).
7 | network_0/router_level2_5 |   Scheduling switch connection from input 1.0 to output 13.0.
7 | network_0/router_level2_5 | Updating lookahead routing information for flit 10.
7 | network_0/router_level2_7 | Beginning switch allocation for VC 0 at input 0 (front: 4).
7 | network_0/router_level2_7 |   Requesting output 8.0 (non-spec, pri: 0).
7 | network_0/router_level2_7/sw_allocator | Input requests = [ 0 -> [ 8@0 ]  3 -> [ 9@0 ]  ], output requests = [ 8 -> [ 0@0 ]  9 -> [ 3@0 ]  ].
7 | network_0/router_level2_7/sw_allocator | Input grants = [ 0 -> 8  3 -> 9  ], output grants = [ 8 -> 0  9 -> 3  ].
7 | network_0/router_level2_7 | Assigning output 8.0 to VC 0 at input 0.0.
7 | network_0/router_level2_7 | Completed switch allocation for VC 0 at input 0 (front: 4).
7 | network_0/router_level2_7 |   Scheduling switch connection from input 0.0 to output 8.0.
7 | network_0/router_level2_7 | Updating lookahead routing information for flit 4.
7 | network_0/router_level3_1 | Beginning crossbar traversal for flit 7 from input 3.0 to output 11.0.
7 | network_0/router_level3_1 | Completed crossbar traversal for flit 7 from input 3.0 to output 11.0.
7 | network_0/router_level3_1 | Buffering flit 7 at output 11.
7 | network_0/router_level3_1 | Sending flit 7 to channel at output 11.
8 | network_0/network_0_fchan_20491 | Beginning channel traversal for flit 7 with delay 1.
8 | network_0/router_level2_0 | Beginning crossbar traversal for flit 1 from input 0.0 to output 12.0.
8 | network_0/router_level2_0 | Completed crossbar traversal for flit 1 from input 0.0 to output 12.0.
8 | network_0/router_level2_0 | Buffering flit 1 at output 12.
8 | network_0/router_level2_1 | Beginning VC allocation for VC 1 at input 1 (front: 9).
8 | network_0/router_level2_1 |   VC 0 at output 11 is in use by VC 0 at input 0 (front flit: 3054).
8 | network_0/router_level2_1 |   Requesting VC 1 at output 11 (in_pri: 0, out_pri: 0).
8 | network_0/router_level2_1 |   Requesting VC 2 at output 11 (in_pri: 0, out_pri: 0).
8 | network_0/router_level2_1 |   Requesting VC 3 at output 11 (in_pri: 0, out_pri: 0).
8 | network_0/router_level2_1/vc_allocator | Input requests = [ 1 -> [ 56@0 57@0 58@0 59@0 ]  4 -> [ 36@0 37@0 38@0 39@0 ]  5 -> [ 45@0 46@0 47@0 ]  16 -> [ 45@0 46@0 47@0 ]  17 -> [ 40@0 41@0 42@0 43@0 ]  20 -> [ 40@0 41@0 42@0 43@0 ]  ], output requests = [ 36 -> [ 4@0 ]  37 -> [ 4@0 ]  38 -> [ 4@0 ]  39 -> [ 4@0 ]  40 -> [ 17@0 20@0 ]  41 -> [ 17@0 20@0 ]  42 -> [ 17@0 20@0 ]  43 -> [ 17@0 20@0 ]  45 -> [ 5@0 16@0 ]  46 -> [ 5@0 16@0 ]  47 -> [ 5@0 16@0 ]  56 -> [ 1@0 ]  57 -> [ 1@0 ]  58 -> [ 1@0 ]  59 -> [ 1@0 ]  ].
8 | network_0/router_level2_1/vc_allocator | Input grants = [ 1 -> 56  4 -> 36  5 -> 45  17 -> 40  ], output grants = [ 36 -> 4  40 -> 17  45 -> 5  56 -> 1  ].
8 | network_0/router_level2_1 | Assigning VC 1 at output 11 to VC 1 at input 1.
8 | network_0/router_level2_1 | Beginning crossbar traversal for flit 5 from input 1.0 to output 14.0.
8 | network_0/router_level2_1 | Completed VC allocation for VC 1 at input 1 (front: 9).
8 | network_0/router_level2_1 |   Acquiring assigned VC 1 at output 11.
8 | network_0/router_level2_1/buf_1/vc_1 | Changing state from vc_alloc to active.
8 | network_0/router_level2_1 | Completed crossbar traversal for flit 5 from input 1.0 to output 14.0.
8 | network_0/router_level2_1 | Buffering flit 5 at output 14.
8 | network_0/router_level2_3 | Beginning crossbar traversal for flit 3 from input 0.0 to output 9.0.
8 | network_0/router_level2_3 | Beginning crossbar traversal for flit 6 from input 1.0 to output 11.0.
8 | network_0/router_level2_3 | Completed crossbar traversal for flit 3 from input 0.0 to output 9.0.
8 | network_0/router_level2_3 | Buffering flit 3 at output 9.
8 | network_0/router_level2_3 | Completed crossbar traversal for flit 6 from input 1.0 to output 11.0.
8 | network_0/router_level2_3 | Buffering flit 6 at output 11.
8 | network_0/router_level2_4 | Beginning crossbar traversal for flit 2 from input 0.0 to output 12.0.
8 | network_0/router_level2_4 | Beginning crossbar traversal for flit 8 from input 1.0 to output 10.0.
8 | network_0/router_level2_4 | Completed crossbar traversal for flit 2 from input 0.0 to output 12.0.
8 | network_0/router_level2_4 | Buffering flit 2 at output 12.
8 | network_0/router_level2_4 | Completed crossbar traversal for flit 8 from input 1.0 to output 10.0.
8 | network_0/router_level2_4 | Buffering flit 8 at output 10.
8 | network_0/router_level2_5 | Beginning crossbar traversal for flit 10 from input 1.0 to output 13.0.
8 | network_0/router_level2_5 | Completed crossbar traversal for flit 10 from input 1.0 to output 13.0.
8 | network_0/router_level2_5 | Buffering flit 10 at output 13.
8 | network_0/router_level2_7 | Beginning crossbar traversal for flit 4 from input 0.0 to output 8.0.
8 | network_0/router_level2_7 | Completed crossbar traversal for flit 4 from input 0.0 to output 8.0.
8 | network_0/router_level2_7 | Buffering flit 4 at output 8.
8 | network_0/network_0_fchan_20491 | Completed channel traversal for flit 7.
8 | network_0/router_level2_0 | Sending flit 1 to channel at output 12.
8 | network_0/router_level2_1 | Sending flit 5 to channel at output 14.
8 | network_0/router_level2_3 | Sending flit 3 to channel at output 9.
8 | network_0/router_level2_3 | Sending flit 6 to channel at output 11.
8 | network_0/router_level2_4 | Sending flit 8 to channel at output 10.
8 | network_0/router_level2_4 | Sending flit 2 to channel at output 12.
8 | network_0/router_level2_5 | Sending flit 10 to channel at output 13.
8 | network_0/router_level2_7 | Sending flit 4 to channel at output 8.
9 | network_0/network_0_fchan_12292 | Beginning channel traversal for flit 1 with delay 1.
9 | network_0/network_0_fchan_12302 | Beginning channel traversal for flit 5 with delay 1.
9 | network_0/network_0_fchan_12313 | Beginning channel traversal for flit 3 with delay 1.
9 | network_0/network_0_fchan_12315 | Beginning channel traversal for flit 6 with delay 1.
9 | network_0/network_0_fchan_12322 | Beginning channel traversal for flit 8 with delay 1.
9 | network_0/network_0_fchan_12324 | Beginning channel traversal for flit 2 with delay 1.
9 | network_0/network_0_fchan_12333 | Beginning channel traversal for flit 10 with delay 1.
9 | network_0/network_0_fchan_12344 | Beginning channel traversal for flit 4 with delay 1.
9 | network_0/router_level2_3 | Received flit 7 from channel at input 1.
9 | network_0/router_level2_1 | Beginning switch allocation for VC 1 at input 1 (front: 9).
9 | network_0/router_level2_1 |   Requesting output 11.0 (non-spec, pri: 0).
9 | network_0/router_level2_1/sw_allocator | Input requests = [ 0 -> [ 14@0 ]  1 -> [ 9@0 11@0 ]  4 -> [ 10@0 ]  ], output requests = [ 9 -> [ 1@0 ]  10 -> [ 4@0 ]  11 -> [ 1@0 ]  14 -> [ 0@0 ]  ].
9 | network_0/router_level2_1/sw_allocator | Input grants = [ 0 -> 14  1 -> 9  4 -> 10  ], output grants = [ 9 -> 1  10 -> 4  14 -> 0  ].
9 | network_0/router_level2_1 | Switch allocation failed for VC 1 at input 1: Granted to VC 0.
9 | network_0/router_level2_1 | Completed switch allocation for VC 1 at input 1 (front: 9).
9 | network_0/router_level2_1 |   No output port allocated.
9 | network_0/router_level2_3 | Adding flit 7 to VC 0 at input 1 (state: idle, empty).
9 | network_0/router_level2_3 | Using precomputed lookahead routing information for VC 0 at input 1 (front: 7).
9 | network_0/router_level2_3/buf_1/vc_0 | Changing state from idle to vc_alloc.
9 | network_0/router_level2_3 | Beginning VC allocation for VC 0 at input 1 (front: 7).
9 | network_0/router_level2_3 |   Requesting VC 0 at output 12 (in_pri: 0, out_pri: 0).
9 | network_0/router_level2_3 |   Requesting VC 1 at output 12 (in_pri: 0, out_pri: 0).
9 | network_0/router_level2_3 |   Requesting VC 2 at output 12 (in_pri: 0, out_pri: 0).
9 | network_0/router_level2_3 |   Requesting VC 3 at output 12 (in_pri: 0, out_pri: 0).
9 | network_0/router_level2_3/vc_allocator | Input requests = [ 4 -> [ 48@0 49@0 50@0 51@0 ]  12 -> [ 41@0 42@0 43@0 ]  13 -> [ 48@0 49@0 50@0 51@0 ]  25 -> [ 33@0 34@0 35@0 ]  ], output requests = [ 33 -> [ 25@0 ]  34 -> [ 25@0 ]  35 -> [ 25@0 ]  41 -> [ 12@0 ]  42 -> [ 12@0 ]  43 -> [ 12@0 ]  48 -> [ 4@0 13@0 ]  49 -> [ 4@0 13@0 ]  50 -> [ 4@0 13@0 ]  51 -> [ 4@0 13@0 ]  ].
9 | network_0/router_level2_3/vc_allocator | Input grants = [ 4 -> 48  12 -> 41  25 -> 33  ], output grants = [ 33 -> 25  41 -> 12  48 -> 4  ].
9 | network_0/router_level2_3 | Assigning VC 0 at output 12 to VC 0 at input 1.
9 | network_0/router_level2_3 | Completed VC allocation for VC 0 at input 1 (front: 7).
9 | network_0/router_level2_3 |   Acquiring assigned VC 0 at output 12.
9 | network_0/router_level2_3/buf_1/vc_0 | Changing state from vc_alloc to active.
9 | network_0/network_0_fchan_12292 | Completed channel traversal for flit 1.
9 | network_0/network_0_fchan_12302 | Completed channel traversal for flit 5.
9 | network_0/network_0_fchan_12313 | Completed channel traversal for flit 3.
9 | network_0/network_0_fchan_12315 | Completed channel traversal for flit 6.
9 | network_0/network_0_fchan_12322 | Completed channel traversal for flit 8.
9 | network_0/network_0_fchan_12324 | Completed channel traversal for flit 2.
9 | network_0/network_0_fchan_12333 | Completed channel traversal for flit 10.
9 | network_0/network_0_fchan_12344 | Completed channel traversal for flit 4.
10 | network_0/router_level1_7 | Received flit 4 from channel at input 0.
10 | network_0/router_level1_11 | Received flit 3 from channel at input 0.
10 | network_0/router_level1_20 | Received flit 8 from channel at input 0.
10 | network_0/router_level1_27 | Received flit 6 from channel at input 0.
10 | network_0/router_level1_32 | Received flit 1 from channel at input 0.
10 | network_0/router_level1_36 | Received flit 2 from channel at input 0.
10 | network_0/router_level1_45 | Received flit 10 from channel at input 0.
10 | network_0/router_level1_49 | Received flit 5 from channel at input 0.
10 | network_0/router_level1_7 | Adding flit 4 to VC 0 at input 0 (state: idle, empty).
10 | network_0/router_level1_7 | Using precomputed lookahead routing information for VC 0 at input 0 (front: 4).
10 | network_0/router_level1_7/buf_0/vc_0 | Changing state from idle to vc_alloc.
10 | network_0/router_level1_7 | Beginning VC allocation for VC 0 at input 0 (front: 4).
10 | network_0/router_level1_7 |   Requesting VC 0 at output 15 (in_pri: 0, out_pri: 0).
10 | network_0/router_level1_7 |   Requesting VC 1 at output 15 (in_pri: 0, out_pri: 0).
10 | network_0/router_level1_7 |   Requesting VC 2 at output 15 (in_pri: 0, out_pri: 0).
10 | network_0/router_level1_7 |   Requesting VC 3 at output 15 (in_pri: 0, out_pri: 0).
10 | network_0/router_level1_7/vc_allocator | Input requests = [ 0 -> [ 60@0 61@0 62@0 63@0 ]  20 -> [ 44@0 45@0 46@0 47@0 ]  28 -> [ 12@0 13@0 14@0 15@0 ]  ], output requests = [ 12 -> [ 28@0 ]  13 -> [ 28@0 ]  14 -> [ 28@0 ]  15 -> [ 28@0 ]  44 -> [ 20@0 ]  45 -> [ 20@0 ]  46 -> [ 20@0 ]  47 -> [ 20@0 ]  60 -> [ 0@0 ]  61 -> [ 0@0 ]  62 -> [ 0@0 ]  63 -> [ 0@0 ]  ].
10 | network_0/router_level1_7/vc_allocator | Input grants = [ 0 -> 60  20 -> 44  28 -> 12  ], output grants = [ 12 -> 28  44 -> 20  60 -> 0  ].
10 | network_0/router_level1_7 | Assigning VC 0 at output 15 to VC 0 at input 0.
10 | network_0/router_level1_7 | Completed VC allocation for VC 0 at input 0 (front: 4).
10 | network_0/router_level1_7 |   Acquiring assigned VC 0 at output 15.
10 | network_0/router_level1_7/buf_0/vc_0 | Changing state from vc_alloc to active.
10 | network_0/router_level1_11 | Adding flit 3 to VC 0 at input 0 (state: idle, empty).
10 | network_0/router_level1_11 | Using precomputed lookahead routing information for VC 0 at input 0 (front: 3).
10 | network_0/router_level1_11/buf_0/vc_0 | Changing state from idle to vc_alloc.
10 | network_0/router_level1_11 | Beginning VC allocation for VC 0 at input 0 (front: 3).
10 | network_0/router_level1_11 |   Requesting VC 0 at output 8 (in_pri: 0, out_pri: 0).
10 | network_0/router_level1_11 |   Requesting VC 1 at output 8 (in_pri: 0, out_pri: 0).
10 | network_0/router_level1_11 |   Requesting VC 2 at output 8 (in_pri: 0, out_pri: 0).
10 | network_0/router_level1_11 |   Requesting VC 3 at output 8 (in_pri: 0, out_pri: 0).
10 | network_0/router_level1_11/vc_allocator | Input requests = [ 0 -> [ 32@0 33@0 34@0 35@0 ]  12 -> [ 28@0 29@0 30@0 31@0 ]  24 -> [ 48@0 49@0 50@0 51@0 ]  28 -> [ 36@0 37@0 38@0 39@0 ]  ], output requests = [ 28 -> [ 12@0 ]  29 -> [ 12@0 ]  30 -> [ 12@0 ]  31 -> [ 12@0 ]  32 -> [ 0@0 ]  33 -> [ 0@0 ]  34 -> [ 0@0 ]  35 -> [ 0@0 ]  36 -> [ 28@0 ]  37 -> [ 28@0 ]  38 -> [ 28@0 ]  39 -> [ 28@0 ]  48 -> [ 24@0 ]  49 -> [ 24@0 ]  50 -> [ 24@0 ]  51 -> [ 24@0 ]  ].
10 | network_0/router_level1_11/vc_allocator | Input grants = [ 0 -> 32  12 -> 28  24 -> 48  28 -> 36  ], output grants = [ 28 -> 12  32 -> 0  36 -> 28  48 -> 24  ].
10 | network_0/router_level1_11 | Assigning VC 0 at output 8 to VC 0 at input 0.
10 | network_0/router_level1_11 | Completed VC allocation for VC 0 at input 0 (front: 3).
10 | network_0/router_level1_11 |   Acquiring assigned VC 0 at output 8.
10 | network_0/router_level1_11/buf_0/vc_0 | Changing state from vc_alloc to active.
10 | network_0/router_level1_20 | Adding flit 8 to VC 0 at input 0 (state: idle, empty).
10 | network_0/router_level1_20 | Using precomputed lookahead routing information for VC 0 at input 0 (front: 8).
10 | network_0/router_level1_20/buf_0/vc_0 | Changing state from idle to vc_alloc.
10 | network_0/router_level1_20 | Beginning VC allocation for VC 0 at input 0 (front: 8).
10 | network_0/router_level1_20 |   Requesting VC 0 at output 14 (in_pri: 0, out_pri: 0).
10 | network_0/router_level1_20 |   Requesting VC 1 at output 14 (in_pri: 0, out_pri: 0).
10 | network_0/router_level1_20 |   Requesting VC 2 at output 14 (in_pri: 0, out_pri: 0).
10 | network_0/router_level1_20 |   Requesting VC 3 at output 14 (in_pri: 0, out_pri: 0).
10 | network_0/router_level1_20/vc_allocator | Input requests = [ 0 -> [ 56@0 57@0 58@0 59@0 ]  8 -> [ 40@0 41@0 42@0 43@0 ]  16 -> [ 32@0 33@0 34@0 35@0 ]  28 -> [ 60@0 61@0 62@0 63@0 ]  ], output requests = [ 32 -> [ 16@0 ]  33 -> [ 16@0 ]  34 -> [ 16@0 ]  35 -> [ 16@0 ]  40 -> [ 8@0 ]  41 -> [ 8@0 ]  42 -> [ 8@0 ]  43 -> [ 8@0 ]  56 -> [ 0@0 ]  57 -> [ 0@0 ]  58 -> [ 0@0 ]  59 -> [ 0@0 ]  60 -> [ 28@0 ]  61 -> [ 28@0 ]  62 -> [ 28@0 ]  63 -> [ 28@0 ]  ].
10 | network_0/router_level1_20/vc_allocator | Input grants = [ 0 -> 56  8 -> 40  16 -> 32  28 -> 60  ], output grants = [ 32 -> 16  40 -> 8  56 -> 0  60 -> 28  ].
10 | network_0/router_level1_20 | Assigning VC 0 at output 14 to VC 0 at input 0.
10 | network_0/router_level1_20 | Completed VC allocation for VC 0 at input 0 (front: 8).
10 | network_0/router_level1_20 |   Acquiring assigned VC 0 at output 14.
10 | network_0/router_level1_20/buf_0/vc_0 | Changing state from vc_alloc to active.
10 | network_0/router_level1_27 | Adding flit 6 to VC 0 at input 0 (state: idle, empty).
10 | network_0/router_level1_27 | Using precomputed lookahead routing information for VC 0 at input 0 (front: 6).
10 | network_0/router_level1_27/buf_0/vc_0 | Changing state from idle to vc_alloc.
10 | network_0/router_level1_27 | Beginning VC allocation for VC 0 at input 0 (front: 6).
10 | network_0/router_level1_27 |   Requesting VC 0 at output 8 (in_pri: 0, out_pri: 0).
10 | network_0/router_level1_27 |   Requesting VC 1 at output 8 (in_pri: 0, out_pri: 0).
10 | network_0/router_level1_27 |   Requesting VC 2 at output 8 (in_pri: 0, out_pri: 0).
10 | network_0/router_level1_27 |   Requesting VC 3 at output 8 (in_pri: 0, out_pri: 0).
10 | network_0/router_level1_27/vc_allocator | Input requests = [ 0 -> [ 32@0 33@0 34@0 35@0 ]  12 -> [ 44@0 45@0 46@0 47@0 ]  20 -> [ 60@0 61@0 62@0 63@0 ]  24 -> [ 60@0 61@0 62@0 63@0 ]  ], output requests = [ 32 -> [ 0@0 ]  33 -> [ 0@0 ]  34 -> [ 0@0 ]  35 -> [ 0@0 ]  44 -> [ 12@0 ]  45 -> [ 12@0 ]  46 -> [ 12@0 ]  47 -> [ 12@0 ]  60 -> [ 20@0 24@0 ]  61 -> [ 20@0 24@0 ]  62 -> [ 20@0 24@0 ]  63 -> [ 20@0 24@0 ]  ].
10 | network_0/router_level1_27/vc_allocator | Input grants = [ 0 -> 32  12 -> 44  20 -> 60  ], output grants = [ 32 -> 0  44 -> 12  60 -> 20  ].
10 | network_0/router_level1_27 | Assigning VC 0 at output 8 to VC 0 at input 0.
10 | network_0/router_level1_27 | Completed VC allocation for VC 0 at input 0 (front: 6).
10 | network_0/router_level1_27 |   Acquiring assigned VC 0 at output 8.
10 | network_0/router_level1_27/buf_0/vc_0 | Changing state from vc_alloc to active.
10 | network_0/router_level1_32 | Adding flit 1 to VC 0 at input 0 (state: idle, empty).
10 | network_0/router_level1_32 | Using precomputed lookahead routing information for VC 0 at input 0 (front: 1).
10 | network_0/router_level1_32/buf_0/vc_0 | Changing state from idle to vc_alloc.
10 | network_0/router_level1_32 | Beginning VC allocation for VC 0 at input 0 (front: 1).
10 | network_0/router_level1_32 |   Requesting VC 0 at output 15 (in_pri: 0, out_pri: 0).
10 | network_0/router_level1_32 |   Requesting VC 1 at output 15 (in_pri: 0, out_pri: 0).
10 | network_0/router_level1_32 |   Requesting VC 2 at output 15 (in_pri: 0, out_pri: 0).
10 | network_0/router_level1_32 |   Requesting VC 3 at output 15 (in_pri: 0, out_pri: 0).
10 | network_0/router_level1_32/vc_allocator | Input requests = [ 0 -> [ 60@0 61@0 62@0 63@0 ]  4 -> [ 52@0 53@0 54@0 55@0 ]  8 -> [ 0@0 1@0 2@0 3@0 ]  12 -> [ 56@0 57@0 58@0 59@0 ]  20 -> [ 24@0 25@0 26@0 27@0 ]  24 -> [ 44@0 45@0 46@0 47@0 ]  ], output requests = [ 0 -> [ 8@0 ]  1 -> [ 8@0 ]  2 -> [ 8@0 ]  3 -> [ 8@0 ]  24 -> [ 20@0 ]  25 -> [ 20@0 ]  26 -> [ 20@0 ]  27 -> [ 20@0 ]  44 -> [ 24@0 ]  45 -> [ 24@0 ]  46 -> [ 24@0 ]  47 -> [ 24@0 ]  52 -> [ 4@0 ]  53 -> [ 4@0 ]  54 -> [ 4@0 ]  55 -> [ 4@0 ]  56 -> [ 12@0 ]  57 -> [ 12@0 ]  58 -> [ 12@0 ]  59 -> [ 12@0 ]  60 -> [ 0@0 ]  61 -> [ 0@0 ]  62 -> [ 0@0 ]  63 -> [ 0@0 ]  ].
10 | network_0/router_level1_32/vc_allocator | Input grants = [ 0 -> 60  4 -> 52  8 -> 0  12 -> 56  20 -> 24  24 -> 44  ], output grants = [ 0 -> 8  24 -> 20  44 -> 24  52 -> 4  56 -> 12  60 -> 0  ].
10 | network_0/router_level1_32 | Assigning VC 0 at output 15 to VC 0 at input 0.
10 | network_0/router_level1_32 | Completed VC allocation for VC 0 at input 0 (front: 1).
10 | network_0/router_level1_32 |   Acquiring assigned VC 0 at output 15.
10 | network_0/router_level1_32/buf_0/vc_0 | Changing state from vc_alloc to active.
10 | network_0/router_level1_36 | Adding flit 2 to VC 0 at input 0 (state: idle, empty).
10 | network_0/router_level1_36 | Using precomputed lookahead routing information for VC 0 at input 0 (front: 2).
10 | network_0/router_level1_36/buf_0/vc_0 | Changing state from idle to vc_alloc.
10 | network_0/router_level1_36 | Beginning VC allocation for VC 0 at input 0 (front: 2).
10 | network_0/router_level1_36 |   Requesting VC 0 at output 11 (in_pri: 0, out_pri: 0).
10 | network_0/router_level1_36 |   Requesting VC 1 at output 11 (in_pri: 0, out_pri: 0).
10 | network_0/router_level1_36 |   Requesting VC 2 at output 11 (in_pri: 0, out_pri: 0).
10 | network_0/router_level1_36 |   Requesting VC 3 at output 11 (in_pri: 0, out_pri: 0).
10 | network_0/router_level1_36/vc_allocator | Input requests = [ 0 -> [ 44@0 45@0 46@0 47@0 ]  4 -> [ 56@0 57@0 58@0 59@0 ]  12 -> [ 48@0 49@0 50@0 51@0 ]  16 -> [ 48@0 49@0 50@0 51@0 ]  24 -> [ 52@0 53@0 54@0 55@0 ]  ], output requests = [ 44 -> [ 0@0 ]  45 -> [ 0@0 ]  46 -> [ 0@0 ]  47 -> [ 0@0 ]  48 -> [ 12@0 16@0 ]  49 -> [ 12@0 16@0 ]  50 -> [ 12@0 16@0 ]  51 -> [ 12@0 16@0 ]  52 -> [ 24@0 ]  53 -> [ 24@0 ]  54 -> [ 24@0 ]  55 -> [ 24@0 ]  56 -> [ 4@0 ]  57 -> [ 4@0 ]  58 -> [ 4@0 ]  59 -> [ 4@0 ]  ].
10 | network_0/router_level1_36/vc_allocator | Input grants = [ 0 -> 44  4 -> 56  12 -> 48  24 -> 52  ], output grants = [ 44 -> 0  48 -> 12  52 -> 24  56 -> 4  ].
10 | network_0/router_level1_36 | Assigning VC 0 at output 11 to VC 0 at input 0.
10 | network_0/router_level1_36 | Completed VC allocation for VC 0 at input 0 (front: 2).
10 | network_0/router_level1_36 |   Acquiring assigned VC 0 at output 11.
10 | network_0/router_level1_36/buf_0/vc_0 | Changing state from vc_alloc to active.
10 | network_0/router_level1_45 | Adding flit 10 to VC 0 at input 0 (state: idle, empty).
10 | network_0/router_level1_45 | Using precomputed lookahead routing information for VC 0 at input 0 (front: 10).
10 | network_0/router_level1_45/buf_0/vc_0 | Changing state from idle to vc_alloc.
10 | network_0/router_level1_45 | Beginning VC allocation for VC 0 at input 0 (front: 10).
10 | network_0/router_level1_45 |   Requesting VC 0 at output 11 (in_pri: 0, out_pri: 0).
10 | network_0/router_level1_45 |   Requesting VC 1 at output 11 (in_pri: 0, out_pri: 0).
10 | network_0/router_level1_45 |   Requesting VC 2 at output 11 (in_pri: 0, out_pri: 0).
10 | network_0/router_level1_45 |   Requesting VC 3 at output 11 (in_pri: 0, out_pri: 0).
10 | network_0/router_level1_45/vc_allocator | Input requests = [ 0 -> [ 44@0 45@0 46@0 47@0 ]  8 -> [ 56@0 57@0 58@0 59@0 ]  12 -> [ 32@0 33@0 34@0 35@0 ]  28 -> [ 16@0 17@0 18@0 19@0 ]  ], output requests = [ 16 -> [ 28@0 ]  17 -> [ 28@0 ]  18 -> [ 28@0 ]  19 -> [ 28@0 ]  32 -> [ 12@0 ]  33 -> [ 12@0 ]  34 -> [ 12@0 ]  35 -> [ 12@0 ]  44 -> [ 0@0 ]  45 -> [ 0@0 ]  46 -> [ 0@0 ]  47 -> [ 0@0 ]  56 -> [ 8@0 ]  57 -> [ 8@0 ]  58 -> [ 8@0 ]  59 -> [ 8@0 ]  ].
10 | network_0/router_level1_45/vc_allocator | Input grants = [ 0 -> 44  8 -> 56  12 -> 32  28 -> 16  ], output grants = [ 16 -> 28  32 -> 12  44 -> 0  56 -> 8  ].
10 | network_0/router_level1_45 | Assigning VC 0 at output 11 to VC 0 at input 0.
10 | network_0/router_level1_45 | Completed VC allocation for VC 0 at input 0 (front: 10).
10 | network_0/router_level1_45 |   Acquiring assigned VC 0 at output 11.
10 | network_0/router_level1_45/buf_0/vc_0 | Changing state from vc_alloc to active.
10 | network_0/router_level1_49 | Adding flit 5 to VC 0 at input 0 (state: idle, empty).
10 | network_0/router_level1_49 | Using precomputed lookahead routing information for VC 0 at input 0 (front: 5).
10 | network_0/router_level1_49/buf_0/vc_0 | Changing state from idle to vc_alloc.
10 | network_0/router_level1_49 | Beginning VC allocation for VC 0 at input 0 (front: 5).
10 | network_0/router_level1_49 |   Requesting VC 0 at output 8 (in_pri: 0, out_pri: 0).
10 | network_0/router_level1_49 |   Requesting VC 1 at output 8 (in_pri: 0, out_pri: 0).
10 | network_0/router_level1_49 |   Requesting VC 2 at output 8 (in_pri: 0, out_pri: 0).
10 | network_0/router_level1_49 |   Requesting VC 3 at output 8 (in_pri: 0, out_pri: 0).
10 | network_0/router_level1_49/vc_allocator | Input requests = [ 0 -> [ 32@0 33@0 34@0 35@0 ]  12 -> [ 52@0 53@0 54@0 55@0 ]  20 -> [ 52@0 53@0 54@0 55@0 ]  24 -> [ 36@0 37@0 38@0 39@0 ]  28 -> [ 56@0 57@0 58@0 59@0 ]  ], output requests = [ 32 -> [ 0@0 ]  33 -> [ 0@0 ]  34 -> [ 0@0 ]  35 -> [ 0@0 ]  36 -> [ 24@0 ]  37 -> [ 24@0 ]  38 -> [ 24@0 ]  39 -> [ 24@0 ]  52 -> [ 12@0 20@0 ]  53 -> [ 12@0 20@0 ]  54 -> [ 12@0 20@0 ]  55 -> [ 12@0 20@0 ]  56 -> [ 28@0 ]  57 -> [ 28@0 ]  58 -> [ 28@0 ]  59 -> [ 28@0 ]  ].
10 | network_0/router_level1_49/vc_allocator | Input grants = [ 0 -> 32  12 -> 52  24 -> 36  28 -> 56  ], output grants = [ 32 -> 0  36 -> 24  52 -> 12  56 -> 28  ].
10 | network_0/router_level1_49 | Assigning VC 0 at output 8 to VC 0 at input 0.
10 | network_0/router_level1_49 | Completed VC allocation for VC 0 at input 0 (front: 5).
10 | network_0/router_level1_49 |   Acquiring assigned VC 0 at output 8.
10 | network_0/router_level1_49/buf_0/vc_0 | Changing state from vc_alloc to active.
10 | network_0/router_level2_1 | Beginning switch allocation for VC 1 at input 1 (front: 9).
10 | network_0/router_level2_1 |   Requesting output 11.0 (non-spec, pri: 0).
10 | network_0/router_level2_1/sw_allocator | Input requests = [ 0 -> [ 8@0 ]  1 -> [ 11@0 ]  3 -> [ 14@0 ]  4 -> [ 11@0 ]  5 -> [ 10@0 ]  ], output requests = [ 8 -> [ 0@0 ]  10 -> [ 5@0 ]  11 -> [ 1@0 4@0 ]  14 -> [ 3@0 ]  ].
10 | network_0/router_level2_1/sw_allocator | Input grants = [ 0 -> 8  1 -> 11  3 -> 14  5 -> 10  ], output grants = [ 8 -> 0  10 -> 5  11 -> 1  14 -> 3  ].
10 | network_0/router_level2_1 | Assigning output 11.0 to VC 1 at input 1.0.
10 | network_0/router_level2_1 | Completed switch allocation for VC 1 at input 1 (front: 9).
10 | network_0/router_level2_1 |   Scheduling switch connection from input 1.0 to output 11.0.
10 | network_0/router_level2_1 | Updating lookahead routing information for flit 9.
10 | network_0/router_level2_3 | Beginning switch allocation for VC 0 at input 1 (front: 7).
10 | network_0/router_level2_3 |   Requesting output 12.0 (non-spec, pri: 0).
10 | network_0/router_level2_3/sw_allocator | Input requests = [ 1 -> [ 12@0 ]  2 -> [ 15@0 ]  3 -> [ 10@0 ]  6 -> [ 8@0 ]  ], output requests = [ 8 -> [ 6@0 ]  10 -> [ 3@0 ]  12 -> [ 1@0 ]  15 -> [ 2@0 ]  ].
10 | network_0/router_level2_3/sw_allocator | Input grants = [ 1 -> 12  2 -> 15  3 -> 10  6 -> 8  ], output grants = [ 8 -> 6  10 -> 3  12 -> 1  15 -> 2  ].
[...]
27 | network_0/router_level3_247 |   Requesting output 2.0 (non-spec, pri: 0).
27 | network_0/router_level3_247/sw_allocator | Input requests = [ 0 -> [ 9@0 ]  1 -> [ 14@0 15@0 ]  2 -> [ 9@0 ]  3 -> [ 10@0 12@0 ]  4 -> [ 12@0 15@0 ]  5 -> [ 10@0 11@0 ]  6 -> [ 8@0 9@0 11@0 ]  7 -> [ 8@0 14@0 15@0 ]  8 -> [ 2@0 ]  13 -> [ 0@0 ]  ], output requests = [ 0 -> [ 13@0 ]  2 -> [ 8@0 ]  8 -> [ 6@0 7@0 ]  9 -> [ 0@0 2@0 6@0 ]  10 -> [ 3@0 5@0 ]  11 -> [ 5@0 6@0 ]  12 -> [ 3@0 4@0 ]  14 -> [ 1@0 7@0 ]  15 -> [ 1@0 4@0 7@0 ]  ].
27 | network_0/router_level3_247/sw_allocator | Input grants = [ 1 -> 14  4 -> 15  5 -> 10  6 -> 9  8 -> 2  13 -> 0  ], output grants = [ 0 -> 13  2 -> 8  9 -> 6  10 -> 5  14 -> 1  15 -> 4  ].
27 | network_0/router_level3_247 | Assigning output 2.0 to VC 0 at input 8.0.
27 | network_0/router_level3_247 | Completed switch allocation for VC 0 at input 8 (front: 1).
27 | network_0/router_level3_247 |   Scheduling switch connection from input 8.0 to output 2.0.
27 | network_0/router_level3_305 | Beginning switch allocation for VC 0 at input 15 (front: 4).
27 | network_0/router_level3_305 |   Requesting output 0.0 (non-spec, pri: 0).
27 | network_0/router_level3_305/sw_allocator | Input requests = [ 0 -> [ 13@0 14@0 ]  1 -> [ 8@0 13@0 ]  2 -> [ 8@0 12@0 13@0 ]  3 -> [ 8@0 9@0 ]  5 -> [ 10@0 11@0 15@0 ]  6 -> [ 12@0 14@0 15@0 ]  7 -> [ 10@0 11@0 ]  14 -> [ 1@0 ]  15 -> [ 0@0 ]  ], output requests = [ 0 -> [ 15@0 ]  1 -> [ 14@0 ]  8 -> [ 1@0 2@0 3@0 ]  9 -> [ 3@0 ]  10 -> [ 5@0 7@0 ]  11 -> [ 5@0 7@0 ]  12 -> [ 2@0 6@0 ]  13 -> [ 0@0 1@0 2@0 ]  14 -> [ 0@0 6@0 ]  15 -> [ 5@0 6@0 ]  ].
27 | network_0/router_level3_305/sw_allocator | Input grants = [ 0 -> 13  2 -> 12  3 -> 8  5 -> 15  7 -> 10  14 -> 1  15 -> 0  ], output grants = [ 0 -> 15  1 -> 14  8 -> 3  10 -> 7  12 -> 2  13 -> 0  15 -> 5  ].
27 | network_0/router_level3_305 | Assigning output 0.0 to VC 0 at input 15.0.
27 | network_0/router_level3_305 | Completed switch allocation for VC 0 at input 15 (front: 4).
27 | network_0/router_level3_305 |   Scheduling switch connection from input 15.0 to output 0.0.
27 | network_0/router_level3_485 | Beginning switch allocation for VC 0 at input 9 (front: 5).
27 | network_0/router_level3_485 |   Requesting output 6.0 (non-spec, pri: 0).
27 | network_0/router_level3_485/sw_allocator | Input requests = [ 0 -> [ 13@0 15@0 ]  1 -> [ 14@0 ]  2 -> [ 12@0 15@0 ]  3 -> [ 8@0 9@0 13@0 ]  4 -> [ 10@0 15@0 ]  5 -> [ 11@0 13@0 ]  6 -> [ 8@0 ]  7 -> [ 8@0 ]  9 -> [ 6@0 ]  ], output requests = [ 6 -> [ 9@0 ]  8 -> [ 3@0 6@0 7@0 ]  9 -> [ 3@0 ]  10 -> [ 4@0 ]  11 -> [ 5@0 ]  12 -> [ 2@0 ]  13 -> [ 0@0 3@0 5@0 ]  14 -> [ 1@0 ]  15 -> [ 0@0 2@0 4@0 ]  ].
27 | network_0/router_level3_485/sw_allocator | Input grants = [ 0 -> 13  1 -> 14  2 -> 12  3 -> 9  4 -> 15  5 -> 11  6 -> 8  9 -> 6  ], output grants = [ 6 -> 9  8 -> 6  9 -> 3  11 -> 5  12 -> 2  13 -> 0  14 -> 1  15 -> 4  ].
27 | network_0/router_level3_485 | Assigning output 6.0 to VC 0 at input 9.0.
27 | network_0/router_level3_485 | Completed switch allocation for VC 0 at input 9 (front: 5).
27 | network_0/router_level3_485 |   Scheduling switch connection from input 9.0 to output 6.0.
27 | network_0/router_level2_227 | Sending flit 7 to channel at output 2.
28 | network_0/network_0_fchan_18202 | Beginning channel traversal for flit 7 with delay 1.
28 | network_0/router_level3_129 | Beginning switch allocation for VC 1 at input 13 (front: 10).
28 | network_0/router_level3_129 |   Requesting output 6.0 (non-spec, pri: 0).
28 | network_0/router_level3_129/sw_allocator | Input requests = [ 0 -> [ 9@0 ]  1 -> [ 10@0 12@0 14@0 ]  2 -> [ 8@0 12@0 14@0 ]  3 -> [ 12@0 ]  4 -> [ 9@0 11@0 13@0 ]  5 -> [ 8@0 13@0 ]  6 -> [ 10@0 15@0 ]  7 -> [ 8@0 9@0 15@0 ]  13 -> [ 6@0 ]  15 -> [ 4@0 ]  ], output requests = [ 4 -> [ 15@0 ]  6 -> [ 13@0 ]  8 -> [ 2@0 5@0 7@0 ]  9 -> [ 0@0 4@0 7@0 ]  10 -> [ 1@0 6@0 ]  11 -> [ 4@0 ]  12 -> [ 1@0 2@0 3@0 ]  13 -> [ 4@0 5@0 ]  14 -> [ 1@0 2@0 ]  15 -> [ 6@0 7@0 ]  ].
28 | network_0/router_level3_129/sw_allocator | Input grants = [ 1 -> 14  2 -> 12  4 -> 11  5 -> 8  6 -> 15  7 -> 9  13 -> 6  15 -> 4  ], output grants = [ 4 -> 15  6 -> 13  8 -> 5  9 -> 7  11 -> 4  12 -> 2  14 -> 1  15 -> 6  ].
28 | network_0/router_level3_129 | Assigning output 6.0 to VC 1 at input 13.0.
28 | network_0/router_level3_129 | Completed switch allocation for VC 1 at input 13 (front: 10).
28 | network_0/router_level3_129 |   Scheduling switch connection from input 13.0 to output 6.0.
28 | network_0/router_level3_151 | Beginning crossbar traversal for flit 3 from input 11.0 to output 1.0.
28 | network_0/router_level3_151 | Completed crossbar traversal for flit 3 from input 11.0 to output 1.0.
28 | network_0/router_level3_151 | Buffering flit 3 at output 1.
28 | network_0/router_level3_171 | Beginning crossbar traversal for flit 6 from input 11.0 to output 2.0.
28 | network_0/router_level3_171 | Completed crossbar traversal for flit 6 from input 11.0 to output 2.0.
28 | network_0/router_level3_171 | Buffering flit 6 at output 2.
28 | network_0/router_level3_222 | Beginning switch allocation for VC 1 at input 12 (front: 2).
28 | network_0/router_level3_222 |   Requesting output 3.0 (non-spec, pri: 0).
28 | network_0/router_level3_222/sw_allocator | Input requests = [ 0 -> [ 11@0 12@0 ]  1 -> [ 8@0 11@0 ]  2 -> [ 9@0 ]  3 -> [ 8@0 ]  4 -> [ 11@0 14@0 ]  5 -> [ 10@0 11@0 ]  6 -> [ 14@0 ]  7 -> [ 2@0 14@0 15@0 ]  8 -> [ 0@0 ]  10 -> [ 5@0 ]  11 -> [ 4@0 ]  12 -> [ 3@0 ]  ], output requests = [ 0 -> [ 8@0 ]  2 -> [ 7@0 ]  3 -> [ 12@0 ]  4 -> [ 11@0 ]  5 -> [ 10@0 ]  8 -> [ 1@0 3@0 ]  9 -> [ 2@0 ]  10 -> [ 5@0 ]  11 -> [ 0@0 1@0 4@0 5@0 ]  12 -> [ 0@0 ]  14 -> [ 4@0 6@0 7@0 ]  15 -> [ 7@0 ]  ].
28 | network_0/router_level3_222/sw_allocator | Input grants = [ 2 -> 9  3 -> 8  4 -> 11  5 -> 10  6 -> 14  8 -> 0  10 -> 5  11 -> 4  12 -> 3  ], output grants = [ 0 -> 8  3 -> 12  4 -> 11  5 -> 10  8 -> 3  9 -> 2  10 -> 5  11 -> 4  14 -> 6  ].
28 | network_0/router_level3_222 | Assigning output 3.0 to VC 1 at input 12.0.
28 | network_0/router_level3_222 | Completed switch allocation for VC 1 at input 12 (front: 2).
28 | network_0/router_level3_222 |   Scheduling switch connection from input 12.0 to output 3.0.
28 | network_0/router_level3_224 | Beginning crossbar traversal for flit 8 from input 12.0 to output 3.0.
28 | network_0/router_level3_224 | Completed crossbar traversal for flit 8 from input 12.0 to output 3.0.
28 | network_0/router_level3_224 | Buffering flit 8 at output 3.
28 | network_0/router_level3_247 | Beginning crossbar traversal for flit 1 from input 8.0 to output 2.0.
28 | network_0/router_level3_247 | Completed crossbar traversal for flit 1 from input 8.0 to output 2.0.
28 | network_0/router_level3_247 | Buffering flit 1 at output 2.
28 | network_0/router_level3_305 | Beginning crossbar traversal for flit 4 from input 15.0 to output 0.0.
28 | network_0/router_level3_305 | Completed crossbar traversal for flit 4 from input 15.0 to output 0.0.
28 | network_0/router_level3_305 | Buffering flit 4 at output 0.
28 | network_0/router_level3_485 | Beginning crossbar traversal for flit 5 from input 9.0 to output 6.0.
28 | network_0/router_level3_485 | Completed crossbar traversal for flit 5 from input 9.0 to output 6.0.
28 | network_0/router_level3_485 | Buffering flit 5 at output 6.
28 | network_0/network_0_fchan_18202 | Completed channel traversal for flit 7.
28 | network_0/router_level3_151 | Sending flit 3 to channel at output 1.
28 | network_0/router_level3_171 | Sending flit 6 to channel at output 2.
28 | network_0/router_level3_224 | Sending flit 8 to channel at output 3.
28 | network_0/router_level3_247 | Sending flit 1 to channel at output 2.
28 | network_0/router_level3_305 | Sending flit 4 to channel at output 0.
28 | network_0/router_level3_485 | Sending flit 5 to channel at output 6.
29 | network_0/network_0_fchan_egress1209 | Beginning channel traversal for flit 3 with delay 1.
29 | network_0/network_0_fchan_egress1370 | Beginning channel traversal for flit 6 with delay 1.
29 | network_0/network_0_fchan_egress1795 | Beginning channel traversal for flit 8 with delay 1.
29 | network_0/network_0_fchan_egress1978 | Beginning channel traversal for flit 1 with delay 1.
29 | network_0/network_0_fchan_egress2440 | Beginning channel traversal for flit 4 with delay 1.
29 | network_0/network_0_fchan_egress3886 | Beginning channel traversal for flit 5 with delay 1.
29 | network_0/router_level3_226 | Received flit 7 from channel at input 11.
29 | network_0/router_level3_129 | Beginning crossbar traversal for flit 10 from input 13.0 to output 6.0.
29 | network_0/router_level3_129 | Completed crossbar traversal for flit 10 from input 13.0 to output 6.0.
29 | network_0/router_level3_129 | Buffering flit 10 at output 6.
29 | network_0/router_level3_222 | Beginning crossbar traversal for flit 2 from input 12.0 to output 3.0.
29 | network_0/router_level3_222 | Completed crossbar traversal for flit 2 from input 12.0 to output 3.0.
29 | network_0/router_level3_222 | Buffering flit 2 at output 3.
29 | network_0/router_level3_226 | Adding flit 7 to VC 0 at input 11 (state: idle, empty).
29 | network_0/router_level3_226 | Using precomputed lookahead routing information for VC 0 at input 11 (front: 7).
29 | network_0/router_level3_226/buf_11/vc_0 | Changing state from idle to vc_alloc.
29 | network_0/router_level3_226 | Beginning VC allocation for VC 0 at input 11 (front: 7).
29 | network_0/router_level3_226 |   Requesting VC 0 at output 2 (in_pri: 0, out_pri: 0).
29 | network_0/router_level3_226 |   Requesting VC 1 at output 2 (in_pri: 0, out_pri: 0).
29 | network_0/router_level3_226 |   Requesting VC 2 at output 2 (in_pri: 0, out_pri: 0).
29 | network_0/router_level3_226 |   Requesting VC 3 at output 2 (in_pri: 0, out_pri: 0).
29 | network_0/router_level3_226/vc_allocator | Input requests = [ 2 -> [ 32@0 ]  6 -> [ 44@0 46@0 ]  7 -> [ 52@0 55@0 ]  8 -> [ 36@0 38@0 39@0 ]  16 -> [ 36@0 38@0 39@0 ]  17 -> [ 32@0 ]  20 -> [ 57@0 58@0 59@0 ]  29 -> [ 52@0 55@0 ]  32 -> [ 20@0 21@0 22@0 23@0 ]  44 -> [ 8@0 9@0 10@0 11@0 ]  ], output requests = [ 8 -> [ 44@0 ]  9 -> [ 44@0 ]  10 -> [ 44@0 ]  11 -> [ 44@0 ]  20 -> [ 32@0 ]  21 -> [ 32@0 ]  22 -> [ 32@0 ]  23 -> [ 32@0 ]  32 -> [ 2@0 17@0 ]  36 -> [ 8@0 16@0 ]  38 -> [ 8@0 16@0 ]  39 -> [ 8@0 16@0 ]  44 -> [ 6@0 ]  46 -> [ 6@0 ]  52 -> [ 7@0 29@0 ]  55 -> [ 7@0 29@0 ]  57 -> [ 20@0 ]  58 -> [ 20@0 ]  59 -> [ 20@0 ]  ].
29 | network_0/router_level3_226/vc_allocator | Input grants = [ 2 -> 32  6 -> 44  7 -> 52  16 -> 36  20 -> 57  29 -> 55  32 -> 20  44 -> 8  ], output grants = [ 8 -> 44  20 -> 32  32 -> 2  36 -> 16  44 -> 6  52 -> 7  55 -> 29  57 -> 20  ].
29 | network_0/router_level3_226 | Assigning VC 0 at output 2 to VC 0 at input 11.
29 | network_0/router_level3_226 | Completed VC allocation for VC 0 at input 11 (front: 7).
29 | network_0/router_level3_226 |   Acquiring assigned VC 0 at output 2.
29 | network_0/router_level3_226/buf_11/vc_0 | Changing state from vc_alloc to active.
29 | network_0/network_0_fchan_egress1209 | Completed channel traversal for flit 3.
29 | network_0/network_0_fchan_egress1370 | Completed channel traversal for flit 6.
29 | network_0/network_0_fchan_egress1795 | Completed channel traversal for flit 8.
29 | network_0/network_0_fchan_egress1978 | Completed channel traversal for flit 1.
29 | network_0/network_0_fchan_egress2440 | Completed channel traversal for flit 4.
29 | network_0/network_0_fchan_egress3886 | Completed channel traversal for flit 5.
29 | network_0/router_level3_129 | Sending flit 10 to channel at output 6.
29 | network_0/router_level3_222 | Sending flit 2 to channel at output 3.
30 | node1209 | Ejecting flit 3 (packet 3) from VC 0.
30 | node1370 | Ejecting flit 6 (packet 6) from VC 0.
30 | node1795 | Ejecting flit 8 (packet 8) from VC 0.
30 | node1978 | Ejecting flit 1 (packet 1) from VC 1.
30 | node2440 | Ejecting flit 4 (packet 4) from VC 0.
30 | node3886 | Ejecting flit 5 (packet 5) from VC 1.
30 | network_0/network_0_fchan_egress1038 | Beginning channel traversal for flit 10 with delay 1.
30 | network_0/network_0_fchan_egress1779 | Beginning channel traversal for flit 2 with delay 1.
30 | node1209 | Injecting credit for VC 0 into subnet 0.
30 | node1209 | Retiring flit 3 (packet 3, src = 4, dest = 1209, hops = 7, flat = 30).
30 | node1209 | Retiring packet 3 (plat = 30, nlat = 30, frag = 0, src = 4, dest = 1209).
30 | node1370 | Injecting credit for VC 0 into subnet 0.
30 | node1370 | Retiring flit 6 (packet 6, src = 9, dest = 1370, hops = 7, flat = 30).
30 | node1370 | Retiring packet 6 (plat = 30, nlat = 30, frag = 0, src = 9, dest = 1370).
30 | node1795 | Injecting credit for VC 0 into subnet 0.
30 | node1795 | Retiring flit 8 (packet 8, src = 12, dest = 1795, hops = 7, flat = 30).
30 | node1795 | Retiring packet 8 (plat = 30, nlat = 30, frag = 0, src = 12, dest = 1795).
30 | node1978 | Injecting credit for VC 1 into subnet 0.
30 | node1978 | Retiring flit 1 (packet 1, src = 2, dest = 1978, hops = 7, flat = 30).
30 | node1978 | Retiring packet 1 (plat = 30, nlat = 30, frag = 0, src = 2, dest = 1978).
30 | node2440 | Injecting credit for VC 0 into subnet 0.
30 | node2440 | Retiring flit 4 (packet 4, src = 5, dest = 2440, hops = 7, flat = 30).
30 | node2440 | Retiring packet 4 (plat = 30, nlat = 30, frag = 0, src = 5, dest = 2440).
30 | node3886 | Injecting credit for VC 1 into subnet 0.
30 | node3886 | Retiring flit 5 (packet 5, src = 8, dest = 3886, hops = 7, flat = 30).
30 | node3886 | Retiring packet 5 (plat = 30, nlat = 30, frag = 0, src = 8, dest = 3886).
30 | network_0/router_level3_226 | Beginning switch allocation for VC 0 at input 11 (front: 7).
30 | network_0/router_level3_226 |   Requesting output 2.0 (non-spec, pri: 0).
30 | network_0/router_level3_226/sw_allocator | Input requests = [ 0 -> [ 8@0 10@0 ]  1 -> [ 11@0 13@0 ]  2 -> [ 8@0 ]  3 -> [ 10@0 11@0 13@0 ]  4 -> [ 9@0 ]  5 -> [ 14@0 ]  6 -> [ 10@0 14@0 15@0 ]  7 -> [ 11@0 13@0 ]  8 -> [ 5@0 ]  11 -> [ 2@0 ]  ], output requests = [ 2 -> [ 11@0 ]  5 -> [ 8@0 ]  8 -> [ 0@0 2@0 ]  9 -> [ 4@0 ]  10 -> [ 0@0 3@0 6@0 ]  11 -> [ 1@0 3@0 7@0 ]  13 -> [ 1@0 3@0 7@0 ]  14 -> [ 5@0 6@0 ]  15 -> [ 6@0 ]  ].
30 | network_0/router_level3_226/sw_allocator | Input grants = [ 1 -> 11  2 -> 8  3 -> 10  4 -> 9  5 -> 14  8 -> 5  11 -> 2  ], output grants = [ 2 -> 11  5 -> 8  8 -> 2  9 -> 4  10 -> 3  11 -> 1  14 -> 5  ].
30 | network_0/router_level3_226 | Assigning output 2.0 to VC 0 at input 11.0.
30 | network_0/router_level3_226 | Completed switch allocation for VC 0 at input 11 (front: 7).
30 | network_0/router_level3_226 |   Scheduling switch connection from input 11.0 to output 2.0.
30 | network_0/network_0_fchan_egress1038 | Completed channel traversal for flit 10.
30 | network_0/network_0_fchan_egress1779 | Completed channel traversal for flit 2.
31 | node1038 | Ejecting flit 10 (packet 10) from VC 1.
31 | node1779 | Ejecting flit 2 (packet 2) from VC 0.
31 | node1038 | Injecting credit for VC 1 into subnet 0.
31 | node1038 | Retiring flit 10 (packet 10, src = 14, dest = 1038, hops = 7, flat = 31).
31 | node1038 | Retiring packet 10 (plat = 31, nlat = 31, frag = 0, src = 14, dest = 1038).
31 | node1779 | Injecting credit for VC 0 into subnet 0.
31 | node1779 | Retiring flit 2 (packet 2, src = 3, dest = 1779, hops = 7, flat = 31).
31 | node1779 | Retiring packet 2 (plat = 31, nlat = 31, frag = 0, src = 3, dest = 1779).
31 | network_0/router_level3_226 | Beginning crossbar traversal for flit 7 from input 11.0 to output 2.0.
31 | network_0/router_level3_226 | Completed crossbar traversal for flit 7 from input 11.0 to output 2.0.
31 | network_0/router_level3_226 | Buffering flit 7 at output 2.
31 | network_0/router_level3_226 | Sending flit 7 to channel at output 2.
32 | network_0/network_0_fchan_egress1810 | Beginning channel traversal for flit 7 with delay 1.
32 | network_0/network_0_fchan_egress1810 | Completed channel traversal for flit 7.
33 | node1810 | Ejecting flit 7 (packet 7) from VC 0.
33 | node1810 | Injecting credit for VC 0 into subnet 0.
33 | node1810 | Retiring flit 7 (packet 7, src = 11, dest = 1810, hops = 7, flat = 33).
33 | node1810 | Retiring packet 7 (plat = 33, nlat = 33, frag = 0, src = 11, dest = 1810).
Class 0:
Packet latency average = 132.278
	minimum = 6
	maximum = 427
Network latency average = 131.611
	minimum = 6
	maximum = 427
Slowest packet = 1204562
Flit latency average = 131.611
	minimum = 6
	maximum = 427
Slowest flit = 1430010
Fragmentation average = 0
	minimum = 0
	maximum = 0
Injected packet rate average = 0.735886
	minimum = 0.683 (at node 868)
	maximum = 0.778 (at node 2355)
Accepted packet rate average = 0.593472
	minimum = 0.507 (at node 2542)
	maximum = 0.698 (at node 2526)
Injected flit rate average = 0.735886
	minimum = 0.683 (at node 868)
	maximum = 0.778 (at node 2355)
Accepted flit rate average= 0.593472
	minimum = 0.507 (at node 2542)
	maximum = 0.698 (at node 2526)
Injected packet length average = 1
Accepted packet length average = 1
Total in-flight flits = 584305 (0 measured)
latency change    = 1
throughput change = 1
Class 0:
Packet latency average = 207.553
	minimum = 6
	maximum = 669
Network latency average = 184.466
	minimum = 6
	maximum = 589
Slowest packet = 1808502
Flit latency average = 184.466
	minimum = 6
	maximum = 589
Slowest flit = 3931674
Fragmentation average = 0
	minimum = 0
	maximum = 0
Injected packet rate average = 0.705978
	minimum = 0.661 (at node 3163)
	maximum = 0.7375 (at node 3569)
Accepted packet rate average = 0.621306
	minimum = 0.5585 (at node 940)
	maximum = 0.687 (at node 2824)
Injected flit rate average = 0.705978
	minimum = 0.661 (at node 3163)
	maximum = 0.7375 (at node 3569)
Accepted flit rate average= 0.621306
	minimum = 0.5585 (at node 940)
	maximum = 0.687 (at node 2824)
Injected packet length average = 1
Accepted packet length average = 1
Total in-flight flits = 694968 (0 measured)
latency change    = 0.362677
throughput change = 0.044799
Class 0:
Packet latency average = 404.422
	minimum = 98
	maximum = 854
Network latency average = 263.045
	minimum = 54
	maximum = 686
Slowest packet = 5062778
Flit latency average = 263.045
	minimum = 54
	maximum = 686
Slowest flit = 5834252
Fragmentation average = 0
	minimum = 0
	maximum = 0
Injected packet rate average = 0.670593
	minimum = 0.594 (at node 2871)
	maximum = 0.72 (at node 2646)
Accepted packet rate average = 0.657212
	minimum = 0.568 (at node 2521)
	maximum = 0.746 (at node 279)
Injected flit rate average = 0.670593
	minimum = 0.594 (at node 2871)
	maximum = 0.72 (at node 2646)
Accepted flit rate average= 0.657212
	minimum = 0.568 (at node 2521)
	maximum = 0.746 (at node 279)
Injected packet length average = 1
Accepted packet length average = 1
Total in-flight flits = 749781 (0 measured)
latency change    = 0.486791
throughput change = 0.0546344
Warmed up ...Time used is 3000 cycles
Class 0:
Packet latency average = 537.159
	minimum = 178
	maximum = 1064
Network latency average = 276.303
	minimum = 43
	maximum = 761
Slowest packet = 8566921
Flit latency average = 280.31
	minimum = 39
	maximum = 761
Slowest flit = 8877973
Fragmentation average = 0
	minimum = 0
	maximum = 0
Injected packet rate average = 0.669548
	minimum = 0.563 (at node 3552)
	maximum = 0.718 (at node 1213)
Accepted packet rate average = 0.659798
	minimum = 0.567 (at node 3258)
	maximum = 0.755 (at node 163)
Injected flit rate average = 0.669548
	minimum = 0.563 (at node 3552)
	maximum = 0.718 (at node 1213)
Accepted flit rate average= 0.659798
	minimum = 0.567 (at node 3258)
	maximum = 0.755 (at node 163)
Injected packet length average = 1
Accepted packet length average = 1
Total in-flight flits = 789784 (789784 measured)
latency change    = 0.247109
throughput change = 0.00392002
Average latency for class 0 exceeded 500 cycles. Aborting simulation.
Too many sample periods needed to converge
Simulation unstable, ending ...
Total run time 1107.04
