BEGIN Configuration File: examples/fattree_config_0.65_1_uniform
// $Id: dragonflyconfig 3555 2011-05-16 23:37:55Z dub $

// Copyright (c) 2007-2015, Trustees of The Leland Stanford Junior University
// All rights reserved.
//
// Redistribution and use in source and binary forms, with or without
// modification, are permitted provided that the following conditions are met:
//
// Redistributions of source code must retain the above copyright notice, this
// list of conditions and the following disclaimer.
// Redistributions in binary form must reproduce the above copyright notice,
// this list of conditions and the following disclaimer in the documentation
// and/or other materials provided with the distribution.
//
// THIS SOFTWARE IS PROVIDED BY THE COPYRIGHT HOLDERS AND CONTRIBUTORS "AS IS"
// AND ANY EXPRESS OR IMPLIED WARRANTIES, INCLUDING, BUT NOT LIMITED TO, THE
// IMPLIED WARRANTIES OF MERCHANTABILITY AND FITNESS FOR A PARTICULAR PURPOSE
// ARE DISCLAIMED. IN NO EVENT SHALL THE COPYRIGHT OWNER OR CONTRIBUTORS BE
// LIABLE FOR ANY DIRECT, INDIRECT, INCIDENTAL, SPECIAL, EXEMPLARY, OR
// CONSEQUENTIAL DAMAGES (INCLUDING, BUT NOT LIMITED TO, PROCUREMENT OF
// SUBSTITUTE GOODS OR SERVICES; LOSS OF USE, DATA, OR PROFITS; OR BUSINESS
// INTERRUPTION) HOWEVER CAUSED AND ON ANY THEORY OF LIABILITY, WHETHER IN
// CONTRACT, STRICT LIABILITY, OR TORT (INCLUDING NEGLIGENCE OR OTHERWISE)
// ARISING IN ANY WAY OUT OF THE USE OF THIS SOFTWARE, EVEN IF ADVISED OF THE
// POSSIBILITY OF SUCH DAMAGE.


hold_switch_for_packet=1;

vc_buf_size = 16;


wait_for_tail_credit = 0;

//
// Router architecture
//
vc_allocator = separable_input_first; 
sw_allocator = separable_input_first;
alloc_iters  = 1;

credit_delay   = 2;
routing_delay  = 0;
vc_alloc_delay = 1;
sw_alloc_delay = 1;
st_final_delay = 1;

input_speedup     = 1;
output_speedup    = 1;
internal_speedup  = 1.0;


warmup_periods = 3;
sim_count          = 1;

sample_period  = 1000;  

routing_function = nca;
num_vcs     = 4;

priority = none;
traffic = uniform;


injection_rate = 0.65;
packet_size = 1;
injection_rate_uses_flits=1;

topology = fattree;

k  = 8;
n  = 4;
t = 1;

watch_file = watchfile.txt;
watch_out=-;
stats_out = examples/fattree_config_0.65_1_uniform.m;

END Configuration File: examples/fattree_config_0.65_1_uniform
Fat Tree
 k = 8 levels = 4
 each switch - total radix =  16
 # of switches = 2048
 # of channels = 24576
 # of nodes ( size of network ) = 4096
 tapering factor = 1
0 | node4 | Enqueuing flit 1 (packet 1) at time 0.
0 | node5 | Enqueuing flit 2 (packet 2) at time 0.
0 | node8 | Enqueuing flit 3 (packet 3) at time 0.
0 | node9 | Enqueuing flit 4 (packet 4) at time 0.
0 | node11 | Enqueuing flit 5 (packet 5) at time 0.
0 | node12 | Enqueuing flit 6 (packet 6) at time 0.
0 | node13 | Enqueuing flit 7 (packet 7) at time 0.
0 | node14 | Enqueuing flit 8 (packet 8) at time 0.
0 | node15 | Enqueuing flit 9 (packet 9) at time 0.
0 | node17 | Enqueuing flit 10 (packet 10) at time 0.
0 | traffic_manager | Finding output VC for flit 1:
0 | traffic_manager |   Selected output VC 0.
0 | node4 | Generating lookahead routing info for flit 1.
0 | node4 | Injecting flit 1 into subnet 0 at time 0 with priority 0.
0 | traffic_manager | Finding output VC for flit 2:
0 | traffic_manager |   Selected output VC 0.
0 | node5 | Generating lookahead routing info for flit 2.
0 | node5 | Injecting flit 2 into subnet 0 at time 0 with priority 0.
0 | traffic_manager | Finding output VC for flit 3:
0 | traffic_manager |   Selected output VC 0.
0 | node8 | Generating lookahead routing info for flit 3.
0 | node8 | Injecting flit 3 into subnet 0 at time 0 with priority 0.
0 | traffic_manager | Finding output VC for flit 4:
0 | traffic_manager |   Selected output VC 0.
0 | node9 | Generating lookahead routing info for flit 4.
0 | node9 | Injecting flit 4 into subnet 0 at time 0 with priority 0.
0 | traffic_manager | Finding output VC for flit 5:
0 | traffic_manager |   Selected output VC 0.
0 | node11 | Generating lookahead routing info for flit 5.
0 | node11 | Injecting flit 5 into subnet 0 at time 0 with priority 0.
0 | traffic_manager | Finding output VC for flit 6:
0 | traffic_manager |   Selected output VC 0.
0 | node12 | Generating lookahead routing info for flit 6.
0 | node12 | Injecting flit 6 into subnet 0 at time 0 with priority 0.
0 | traffic_manager | Finding output VC for flit 7:
0 | traffic_manager |   Selected output VC 0.
0 | node13 | Generating lookahead routing info for flit 7.
0 | node13 | Injecting flit 7 into subnet 0 at time 0 with priority 0.
0 | traffic_manager | Finding output VC for flit 8:
0 | traffic_manager |   Selected output VC 0.
0 | node14 | Generating lookahead routing info for flit 8.
0 | node14 | Injecting flit 8 into subnet 0 at time 0 with priority 0.
0 | traffic_manager | Finding output VC for flit 9:
0 | traffic_manager |   Selected output VC 0.
0 | node15 | Generating lookahead routing info for flit 9.
0 | node15 | Injecting flit 9 into subnet 0 at time 0 with priority 0.
0 | traffic_manager | Finding output VC for flit 10:
0 | traffic_manager |   Selected output VC 0.
0 | node17 | Generating lookahead routing info for flit 10.
0 | node17 | Injecting flit 10 into subnet 0 at time 0 with priority 0.
1 | network_0/network_0_fchan_ingress4 | Beginning channel traversal for flit 1 with delay 1.
1 | network_0/network_0_fchan_ingress5 | Beginning channel traversal for flit 2 with delay 1.
1 | network_0/network_0_fchan_ingress8 | Beginning channel traversal for flit 3 with delay 1.
1 | network_0/network_0_fchan_ingress9 | Beginning channel traversal for flit 4 with delay 1.
1 | network_0/network_0_fchan_ingress11 | Beginning channel traversal for flit 5 with delay 1.
1 | network_0/network_0_fchan_ingress12 | Beginning channel traversal for flit 6 with delay 1.
1 | network_0/network_0_fchan_ingress13 | Beginning channel traversal for flit 7 with delay 1.
1 | network_0/network_0_fchan_ingress14 | Beginning channel traversal for flit 8 with delay 1.
1 | network_0/network_0_fchan_ingress15 | Beginning channel traversal for flit 9 with delay 1.
1 | network_0/network_0_fchan_ingress17 | Beginning channel traversal for flit 10 with delay 1.
1 | network_0/network_0_fchan_ingress4 | Completed channel traversal for flit 1.
1 | network_0/network_0_fchan_ingress5 | Completed channel traversal for flit 2.
1 | network_0/network_0_fchan_ingress8 | Completed channel traversal for flit 3.
1 | network_0/network_0_fchan_ingress9 | Completed channel traversal for flit 4.
1 | network_0/network_0_fchan_ingress11 | Completed channel traversal for flit 5.
1 | network_0/network_0_fchan_ingress12 | Completed channel traversal for flit 6.
1 | network_0/network_0_fchan_ingress13 | Completed channel traversal for flit 7.
1 | network_0/network_0_fchan_ingress14 | Completed channel traversal for flit 8.
1 | network_0/network_0_fchan_ingress15 | Completed channel traversal for flit 9.
1 | network_0/network_0_fchan_ingress17 | Completed channel traversal for flit 10.
2 | network_0/router_level3_0 | Received flit 1 from channel at input 4.
2 | network_0/router_level3_0 | Received flit 2 from channel at input 5.
2 | network_0/router_level3_1 | Received flit 3 from channel at input 0.
2 | network_0/router_level3_1 | Received flit 4 from channel at input 1.
2 | network_0/router_level3_1 | Received flit 5 from channel at input 3.
2 | network_0/router_level3_1 | Received flit 6 from channel at input 4.
2 | network_0/router_level3_1 | Received flit 7 from channel at input 5.
2 | network_0/router_level3_1 | Received flit 8 from channel at input 6.
2 | network_0/router_level3_1 | Received flit 9 from channel at input 7.
2 | network_0/router_level3_2 | Received flit 10 from channel at input 1.
2 | network_0/router_level3_0 | Adding flit 1 to VC 0 at input 4 (state: idle, empty).
2 | network_0/router_level3_0 | Using precomputed lookahead routing information for VC 0 at input 4 (front: 1).
2 | network_0/router_level3_0/buf_4/vc_0 | Changing state from idle to vc_alloc.
2 | network_0/router_level3_0 | Adding flit 2 to VC 0 at input 5 (state: idle, empty).
2 | network_0/router_level3_0 | Using precomputed lookahead routing information for VC 0 at input 5 (front: 2).
2 | network_0/router_level3_0/buf_5/vc_0 | Changing state from idle to vc_alloc.
2 | network_0/router_level3_0 | Beginning VC allocation for VC 0 at input 4 (front: 1).
2 | network_0/router_level3_0 |   Requesting VC 0 at output 11 (in_pri: 0, out_pri: 0).
2 | network_0/router_level3_0 |   Requesting VC 1 at output 11 (in_pri: 0, out_pri: 0).
2 | network_0/router_level3_0 |   Requesting VC 2 at output 11 (in_pri: 0, out_pri: 0).
2 | network_0/router_level3_0 |   Requesting VC 3 at output 11 (in_pri: 0, out_pri: 0).
2 | network_0/router_level3_0 | Beginning VC allocation for VC 0 at input 5 (front: 2).
2 | network_0/router_level3_0 |   Requesting VC 0 at output 14 (in_pri: 0, out_pri: 0).
2 | network_0/router_level3_0 |   Requesting VC 1 at output 14 (in_pri: 0, out_pri: 0).
2 | network_0/router_level3_0 |   Requesting VC 2 at output 14 (in_pri: 0, out_pri: 0).
2 | network_0/router_level3_0 |   Requesting VC 3 at output 14 (in_pri: 0, out_pri: 0).
2 | network_0/router_level3_0/vc_allocator | Input requests = [ 4 -> [ 40@0 41@0 42@0 43@0 ]  16 -> [ 44@0 45@0 46@0 47@0 ]  20 -> [ 56@0 57@0 58@0 59@0 ]  ], output requests = [ 40 -> [ 4@0 ]  41 -> [ 4@0 ]  42 -> [ 4@0 ]  43 -> [ 4@0 ]  44 -> [ 16@0 ]  45 -> [ 16@0 ]  46 -> [ 16@0 ]  47 -> [ 16@0 ]  56 -> [ 20@0 ]  57 -> [ 20@0 ]  58 -> [ 20@0 ]  59 -> [ 20@0 ]  ].
2 | network_0/router_level3_0/vc_allocator | Input grants = [ 4 -> 40  16 -> 44  20 -> 56  ], output grants = [ 40 -> 4  44 -> 16  56 -> 20  ].
2 | network_0/router_level3_0 | Assigning VC 0 at output 11 to VC 0 at input 4.
2 | network_0/router_level3_0 | Assigning VC 0 at output 14 to VC 0 at input 5.
2 | network_0/router_level3_0 | Completed VC allocation for VC 0 at input 4 (front: 1).
2 | network_0/router_level3_0 |   Acquiring assigned VC 0 at output 11.
2 | network_0/router_level3_0/buf_4/vc_0 | Changing state from vc_alloc to active.
2 | network_0/router_level3_0 | Completed VC allocation for VC 0 at input 5 (front: 2).
2 | network_0/router_level3_0 |   Acquiring assigned VC 0 at output 14.
2 | network_0/router_level3_0/buf_5/vc_0 | Changing state from vc_alloc to active.
2 | network_0/router_level3_1 | Adding flit 3 to VC 0 at input 0 (state: idle, empty).
2 | network_0/router_level3_1 | Using precomputed lookahead routing information for VC 0 at input 0 (front: 3).
2 | network_0/router_level3_1/buf_0/vc_0 | Changing state from idle to vc_alloc.
2 | network_0/router_level3_1 | Adding flit 4 to VC 0 at input 1 (state: idle, empty).
2 | network_0/router_level3_1 | Using precomputed lookahead routing information for VC 0 at input 1 (front: 4).
2 | network_0/router_level3_1/buf_1/vc_0 | Changing state from idle to vc_alloc.
2 | network_0/router_level3_1 | Adding flit 5 to VC 0 at input 3 (state: idle, empty).
2 | network_0/router_level3_1 | Using precomputed lookahead routing information for VC 0 at input 3 (front: 5).
2 | network_0/router_level3_1/buf_3/vc_0 | Changing state from idle to vc_alloc.
2 | network_0/router_level3_1 | Adding flit 6 to VC 0 at input 4 (state: idle, empty).
2 | network_0/router_level3_1 | Using precomputed lookahead routing information for VC 0 at input 4 (front: 6).
2 | network_0/router_level3_1/buf_4/vc_0 | Changing state from idle to vc_alloc.
2 | network_0/router_level3_1 | Adding flit 7 to VC 0 at input 5 (state: idle, empty).
2 | network_0/router_level3_1 | Using precomputed lookahead routing information for VC 0 at input 5 (front: 7).
2 | network_0/router_level3_1/buf_5/vc_0 | Changing state from idle to vc_alloc.
2 | network_0/router_level3_1 | Adding flit 8 to VC 0 at input 6 (state: idle, empty).
2 | network_0/router_level3_1 | Using precomputed lookahead routing information for VC 0 at input 6 (front: 8).
2 | network_0/router_level3_1/buf_6/vc_0 | Changing state from idle to vc_alloc.
2 | network_0/router_level3_1 | Adding flit 9 to VC 0 at input 7 (state: idle, empty).
2 | network_0/router_level3_1 | Using precomputed lookahead routing information for VC 0 at input 7 (front: 9).
2 | network_0/router_level3_1/buf_7/vc_0 | Changing state from idle to vc_alloc.
2 | network_0/router_level3_1 | Beginning VC allocation for VC 0 at input 0 (front: 3).
2 | network_0/router_level3_1 |   Requesting VC 0 at output 12 (in_pri: 0, out_pri: 0).
2 | network_0/router_level3_1 |   Requesting VC 1 at output 12 (in_pri: 0, out_pri: 0).
2 | network_0/router_level3_1 |   Requesting VC 2 at output 12 (in_pri: 0, out_pri: 0).
2 | network_0/router_level3_1 |   Requesting VC 3 at output 12 (in_pri: 0, out_pri: 0).
2 | network_0/router_level3_1 | Beginning VC allocation for VC 0 at input 1 (front: 4).
2 | network_0/router_level3_1 |   Requesting VC 0 at output 10 (in_pri: 0, out_pri: 0).
2 | network_0/router_level3_1 |   Requesting VC 1 at output 10 (in_pri: 0, out_pri: 0).
2 | network_0/router_level3_1 |   Requesting VC 2 at output 10 (in_pri: 0, out_pri: 0).
2 | network_0/router_level3_1 |   Requesting VC 3 at output 10 (in_pri: 0, out_pri: 0).
2 | network_0/router_level3_1 | Beginning VC allocation for VC 0 at input 3 (front: 5).
2 | network_0/router_level3_1 |   Requesting VC 0 at output 15 (in_pri: 0, out_pri: 0).
2 | network_0/router_level3_1 |   Requesting VC 1 at output 15 (in_pri: 0, out_pri: 0).
2 | network_0/router_level3_1 |   Requesting VC 2 at output 15 (in_pri: 0, out_pri: 0).
2 | network_0/router_level3_1 |   Requesting VC 3 at output 15 (in_pri: 0, out_pri: 0).
2 | network_0/router_level3_1 | Beginning VC allocation for VC 0 at input 4 (front: 6).
2 | network_0/router_level3_1 |   Requesting VC 0 at output 12 (in_pri: 0, out_pri: 0).
2 | network_0/router_level3_1 |   Requesting VC 1 at output 12 (in_pri: 0, out_pri: 0).
2 | network_0/router_level3_1 |   Requesting VC 2 at output 12 (in_pri: 0, out_pri: 0).
2 | network_0/router_level3_1 |   Requesting VC 3 at output 12 (in_pri: 0, out_pri: 0).
2 | network_0/router_level3_1 | Beginning VC allocation for VC 0 at input 5 (front: 7).
2 | network_0/router_level3_1 |   Requesting VC 0 at output 8 (in_pri: 0, out_pri: 0).
2 | network_0/router_level3_1 |   Requesting VC 1 at output 8 (in_pri: 0, out_pri: 0).
2 | network_0/router_level3_1 |   Requesting VC 2 at output 8 (in_pri: 0, out_pri: 0).
2 | network_0/router_level3_1 |   Requesting VC 3 at output 8 (in_pri: 0, out_pri: 0).
2 | network_0/router_level3_1 | Beginning VC allocation for VC 0 at input 6 (front: 8).
2 | network_0/router_level3_1 |   Requesting VC 0 at output 12 (in_pri: 0, out_pri: 0).
2 | network_0/router_level3_1 |   Requesting VC 1 at output 12 (in_pri: 0, out_pri: 0).
2 | network_0/router_level3_1 |   Requesting VC 2 at output 12 (in_pri: 0, out_pri: 0).
2 | network_0/router_level3_1 |   Requesting VC 3 at output 12 (in_pri: 0, out_pri: 0).
2 | network_0/router_level3_1 | Beginning VC allocation for VC 0 at input 7 (front: 9).
2 | network_0/router_level3_1 |   Requesting VC 0 at output 13 (in_pri: 0, out_pri: 0).
2 | network_0/router_level3_1 |   Requesting VC 1 at output 13 (in_pri: 0, out_pri: 0).
2 | network_0/router_level3_1 |   Requesting VC 2 at output 13 (in_pri: 0, out_pri: 0).
2 | network_0/router_level3_1 |   Requesting VC 3 at output 13 (in_pri: 0, out_pri: 0).
2 | network_0/router_level3_1/vc_allocator | Input requests = [ 0 -> [ 48@0 49@0 50@0 51@0 ]  4 -> [ 40@0 41@0 42@0 43@0 ]  12 -> [ 60@0 61@0 62@0 63@0 ]  16 -> [ 48@0 49@0 50@0 51@0 ]  20 -> [ 32@0 33@0 34@0 35@0 ]  24 -> [ 48@0 49@0 50@0 51@0 ]  28 -> [ 52@0 53@0 54@0 55@0 ]  ], output requests = [ 32 -> [ 20@0 ]  33 -> [ 20@0 ]  34 -> [ 20@0 ]  35 -> [ 20@0 ]  40 -> [ 4@0 ]  41 -> [ 4@0 ]  42 -> [ 4@0 ]  43 -> [ 4@0 ]  48 -> [ 0@0 16@0 24@0 ]  49 -> [ 0@0 16@0 24@0 ]  50 -> [ 0@0 16@0 24@0 ]  51 -> [ 0@0 16@0 24@0 ]  52 -> [ 28@0 ]  53 -> [ 28@0 ]  54 -> [ 28@0 ]  55 -> [ 28@0 ]  60 -> [ 12@0 ]  61 -> [ 12@0 ]  62 -> [ 12@0 ]  63 -> [ 12@0 ]  ].
2 | network_0/router_level3_1/vc_allocator | Input grants = [ 0 -> 48  4 -> 40  12 -> 60  20 -> 32  28 -> 52  ], output grants = [ 32 -> 20  40 -> 4  48 -> 0  52 -> 28  60 -> 12  ].
2 | network_0/router_level3_1 | Assigning VC 0 at output 12 to VC 0 at input 0.
2 | network_0/router_level3_1 | Assigning VC 0 at output 10 to VC 0 at input 1.
2 | network_0/router_level3_1 | Assigning VC 0 at output 15 to VC 0 at input 3.
2 | network_0/router_level3_1 | VC allocation failed for VC 0 at input 4.
2 | network_0/router_level3_1 | Assigning VC 0 at output 8 to VC 0 at input 5.
2 | network_0/router_level3_1 | VC allocation failed for VC 0 at input 6.
2 | network_0/router_level3_1 | Assigning VC 0 at output 13 to VC 0 at input 7.
2 | network_0/router_level3_1 | Completed VC allocation for VC 0 at input 0 (front: 3).
2 | network_0/router_level3_1 |   Acquiring assigned VC 0 at output 12.
2 | network_0/router_level3_1/buf_0/vc_0 | Changing state from vc_alloc to active.
2 | network_0/router_level3_1 | Completed VC allocation for VC 0 at input 1 (front: 4).
2 | network_0/router_level3_1 |   Acquiring assigned VC 0 at output 10.
2 | network_0/router_level3_1/buf_1/vc_0 | Changing state from vc_alloc to active.
2 | network_0/router_level3_1 | Completed VC allocation for VC 0 at input 3 (front: 5).
2 | network_0/router_level3_1 |   Acquiring assigned VC 0 at output 15.
2 | network_0/router_level3_1/buf_3/vc_0 | Changing state from vc_alloc to active.
2 | network_0/router_level3_1 | Completed VC allocation for VC 0 at input 4 (front: 6).
2 | network_0/router_level3_1 |   No output VC allocated.
2 | network_0/router_level3_1 | Completed VC allocation for VC 0 at input 5 (front: 7).
2 | network_0/router_level3_1 |   Acquiring assigned VC 0 at output 8.
2 | network_0/router_level3_1/buf_5/vc_0 | Changing state from vc_alloc to active.
2 | network_0/router_level3_1 | Completed VC allocation for VC 0 at input 6 (front: 8).
2 | network_0/router_level3_1 |   No output VC allocated.
2 | network_0/router_level3_1 | Completed VC allocation for VC 0 at input 7 (front: 9).
2 | network_0/router_level3_1 |   Acquiring assigned VC 0 at output 13.
2 | network_0/router_level3_1/buf_7/vc_0 | Changing state from vc_alloc to active.
2 | network_0/router_level3_2 | Adding flit 10 to VC 0 at input 1 (state: idle, empty).
2 | network_0/router_level3_2 | Using precomputed lookahead routing information for VC 0 at input 1 (front: 10).
2 | network_0/router_level3_2/buf_1/vc_0 | Changing state from idle to vc_alloc.
2 | network_0/router_level3_2 | Beginning VC allocation for VC 0 at input 1 (front: 10).
2 | network_0/router_level3_2 |   Requesting VC 0 at output 9 (in_pri: 0, out_pri: 0).
2 | network_0/router_level3_2 |   Requesting VC 1 at output 9 (in_pri: 0, out_pri: 0).
2 | network_0/router_level3_2 |   Requesting VC 2 at output 9 (in_pri: 0, out_pri: 0).
2 | network_0/router_level3_2 |   Requesting VC 3 at output 9 (in_pri: 0, out_pri: 0).
2 | network_0/router_level3_2/vc_allocator | Input requests = [ 4 -> [ 36@0 37@0 38@0 39@0 ]  8 -> [ 56@0 57@0 58@0 59@0 ]  12 -> [ 44@0 45@0 46@0 47@0 ]  16 -> [ 56@0 57@0 58@0 59@0 ]  20 -> [ 48@0 49@0 50@0 51@0 ]  24 -> [ 36@0 37@0 38@0 39@0 ]  28 -> [ 40@0 41@0 42@0 43@0 ]  ], output requests = [ 36 -> [ 4@0 24@0 ]  37 -> [ 4@0 24@0 ]  38 -> [ 4@0 24@0 ]  39 -> [ 4@0 24@0 ]  40 -> [ 28@0 ]  41 -> [ 28@0 ]  42 -> [ 28@0 ]  43 -> [ 28@0 ]  44 -> [ 12@0 ]  45 -> [ 12@0 ]  46 -> [ 12@0 ]  47 -> [ 12@0 ]  48 -> [ 20@0 ]  49 -> [ 20@0 ]  50 -> [ 20@0 ]  51 -> [ 20@0 ]  56 -> [ 8@0 16@0 ]  57 -> [ 8@0 16@0 ]  58 -> [ 8@0 16@0 ]  59 -> [ 8@0 16@0 ]  ].
2 | network_0/router_level3_2/vc_allocator | Input grants = [ 4 -> 36  8 -> 56  12 -> 44  20 -> 48  28 -> 40  ], output grants = [ 36 -> 4  40 -> 28  44 -> 12  48 -> 20  56 -> 8  ].
2 | network_0/router_level3_2 | Assigning VC 0 at output 9 to VC 0 at input 1.
2 | network_0/router_level3_2 | Completed VC allocation for VC 0 at input 1 (front: 10).
2 | network_0/router_level3_2 |   Acquiring assigned VC 0 at output 9.
2 | network_0/router_level3_2/buf_1/vc_0 | Changing state from vc_alloc to active.
3 | network_0/router_level3_0 | Beginning switch allocation for VC 0 at input 4 (front: 1).
3 | network_0/router_level3_0 |   Requesting output 11.0 (non-spec, pri: 0).
3 | network_0/router_level3_0 | Beginning switch allocation for VC 0 at input 5 (front: 2).
3 | network_0/router_level3_0 |   Requesting output 14.0 (non-spec, pri: 0).
3 | network_0/router_level3_0/sw_allocator | Input requests = [ 1 -> [ 10@0 ]  4 -> [ 11@0 ]  5 -> [ 14@0 ]  ], output requests = [ 10 -> [ 1@0 ]  11 -> [ 4@0 ]  14 -> [ 5@0 ]  ].
3 | network_0/router_level3_0/sw_allocator | Input grants = [ 1 -> 10  4 -> 11  5 -> 14  ], output grants = [ 10 -> 1  11 -> 4  14 -> 5  ].
3 | network_0/router_level3_0 | Assigning output 11.0 to VC 0 at input 4.0.
3 | network_0/router_level3_0 | Assigning output 14.0 to VC 0 at input 5.0.
3 | network_0/router_level3_0 | Completed switch allocation for VC 0 at input 4 (front: 1).
3 | network_0/router_level3_0 |   Scheduling switch connection from input 4.0 to output 11.0.
3 | network_0/router_level3_0 | Updating lookahead routing information for flit 1.
3 | network_0/router_level3_0 | Completed switch allocation for VC 0 at input 5 (front: 2).
3 | network_0/router_level3_0 |   Scheduling switch connection from input 5.0 to output 14.0.
3 | network_0/router_level3_0 | Updating lookahead routing information for flit 2.
3 | network_0/router_level3_1 | Beginning VC allocation for VC 0 at input 4 (front: 6).
3 | network_0/router_level3_1 |   VC 0 at output 12 is in use by VC 0 at input 0 (front flit: 3).
3 | network_0/router_level3_1 |   Requesting VC 1 at output 12 (in_pri: 0, out_pri: 0).
3 | network_0/router_level3_1 |   Requesting VC 2 at output 12 (in_pri: 0, out_pri: 0).
3 | network_0/router_level3_1 |   Requesting VC 3 at output 12 (in_pri: 0, out_pri: 0).
3 | network_0/router_level3_1 | Beginning VC allocation for VC 0 at input 6 (front: 8).
3 | network_0/router_level3_1 |   VC 0 at output 12 is in use by VC 0 at input 0 (front flit: 3).
3 | network_0/router_level3_1 |   Requesting VC 1 at output 12 (in_pri: 0, out_pri: 0).
3 | network_0/router_level3_1 |   Requesting VC 2 at output 12 (in_pri: 0, out_pri: 0).
3 | network_0/router_level3_1 |   Requesting VC 3 at output 12 (in_pri: 0, out_pri: 0).
3 | network_0/router_level3_1/vc_allocator | Input requests = [ 5 -> [ 49@0 50@0 51@0 ]  16 -> [ 49@0 50@0 51@0 ]  17 -> [ 61@0 62@0 63@0 ]  21 -> [ 44@0 45@0 46@0 47@0 ]  24 -> [ 49@0 50@0 51@0 ]  25 -> [ 33@0 34@0 35@0 ]  ], output requests = [ 33 -> [ 25@0 ]  34 -> [ 25@0 ]  35 -> [ 25@0 ]  44 -> [ 21@0 ]  45 -> [ 21@0 ]  46 -> [ 21@0 ]  47 -> [ 21@0 ]  49 -> [ 5@0 16@0 24@0 ]  50 -> [ 5@0 16@0 24@0 ]  51 -> [ 5@0 16@0 24@0 ]  61 -> [ 17@0 ]  62 -> [ 17@0 ]  63 -> [ 17@0 ]  ].
3 | network_0/router_level3_1/vc_allocator | Input grants = [ 5 -> 49  17 -> 61  21 -> 44  25 -> 33  ], output grants = [ 33 -> 25  44 -> 21  49 -> 5  61 -> 17  ].
3 | network_0/router_level3_1 | VC allocation failed for VC 0 at input 4.
3 | network_0/router_level3_1 | VC allocation failed for VC 0 at input 6.
3 | network_0/router_level3_1 | Beginning switch allocation for VC 0 at input 0 (front: 3).
3 | network_0/router_level3_1 |   Requesting output 12.0 (non-spec, pri: 0).
3 | network_0/router_level3_1 | Beginning switch allocation for VC 0 at input 1 (front: 4).
3 | network_0/router_level3_1 |   Requesting output 10.0 (non-spec, pri: 0).
3 | network_0/router_level3_1 | Beginning switch allocation for VC 0 at input 3 (front: 5).
3 | network_0/router_level3_1 |   Requesting output 15.0 (non-spec, pri: 0).
3 | network_0/router_level3_1 | Beginning switch allocation for VC 0 at input 5 (front: 7).
3 | network_0/router_level3_1 |   Requesting output 8.0 (non-spec, pri: 0).
3 | network_0/router_level3_1 | Beginning switch allocation for VC 0 at input 7 (front: 9).
3 | network_0/router_level3_1 |   Requesting output 13.0 (non-spec, pri: 0).
3 | network_0/router_level3_1/sw_allocator | Input requests = [ 0 -> [ 12@0 ]  1 -> [ 10@0 ]  3 -> [ 15@0 ]  5 -> [ 8@0 ]  7 -> [ 13@0 ]  ], output requests = [ 8 -> [ 5@0 ]  10 -> [ 1@0 ]  12 -> [ 0@0 ]  13 -> [ 7@0 ]  15 -> [ 3@0 ]  ].
3 | network_0/router_level3_1/sw_allocator | Input grants = [ 0 -> 12  1 -> 10  3 -> 15  5 -> 8  7 -> 13  ], output grants = [ 8 -> 5  10 -> 1  12 -> 0  13 -> 7  15 -> 3  ].
3 | network_0/router_level3_1 | Assigning output 12.0 to VC 0 at input 0.0.
3 | network_0/router_level3_1 | Assigning output 10.0 to VC 0 at input 1.0.
3 | network_0/router_level3_1 | Assigning output 15.0 to VC 0 at input 3.0.
3 | network_0/router_level3_1 | Assigning output 8.0 to VC 0 at input 5.0.
3 | network_0/router_level3_1 | Assigning output 13.0 to VC 0 at input 7.0.
3 | network_0/router_level3_1 | Completed VC allocation for VC 0 at input 4 (front: 6).
3 | network_0/router_level3_1 |   No output VC allocated.
3 | network_0/router_level3_1 | Completed VC allocation for VC 0 at input 6 (front: 8).
3 | network_0/router_level3_1 |   No output VC allocated.
3 | network_0/router_level3_1 | Completed switch allocation for VC 0 at input 0 (front: 3).
3 | network_0/router_level3_1 |   Scheduling switch connection from input 0.0 to output 12.0.
3 | network_0/router_level3_1 | Updating lookahead routing information for flit 3.
3 | network_0/router_level3_1 | Completed switch allocation for VC 0 at input 1 (front: 4).
3 | network_0/router_level3_1 |   Scheduling switch connection from input 1.0 to output 10.0.
3 | network_0/router_level3_1 | Updating lookahead routing information for flit 4.
3 | network_0/router_level3_1 | Completed switch allocation for VC 0 at input 3 (front: 5).
3 | network_0/router_level3_1 |   Scheduling switch connection from input 3.0 to output 15.0.
3 | network_0/router_level3_1 | Updating lookahead routing information for flit 5.
3 | network_0/router_level3_1 | Completed switch allocation for VC 0 at input 5 (front: 7).
3 | network_0/router_level3_1 |   Scheduling switch connection from input 5.0 to output 8.0.
3 | network_0/router_level3_1 | Updating lookahead routing information for flit 7.
3 | network_0/router_level3_1 | Completed switch allocation for VC 0 at input 7 (front: 9).
3 | network_0/router_level3_1 |   Scheduling switch connection from input 7.0 to output 13.0.
3 | network_0/router_level3_1 | Updating lookahead routing information for flit 9.
3 | network_0/router_level3_2 | Beginning switch allocation for VC 0 at input 1 (front: 10).
3 | network_0/router_level3_2 |   Requesting output 9.0 (non-spec, pri: 0).
3 | network_0/router_level3_2/sw_allocator | Input requests = [ 1 -> [ 9@0 ]  2 -> [ 14@0 ]  3 -> [ 11@0 ]  5 -> [ 12@0 ]  7 -> [ 10@0 ]  ], output requests = [ 9 -> [ 1@0 ]  10 -> [ 7@0 ]  11 -> [ 3@0 ]  12 -> [ 5@0 ]  14 -> [ 2@0 ]  ].
3 | network_0/router_level3_2/sw_allocator | Input grants = [ 1 -> 9  2 -> 14  3 -> 11  5 -> 12  7 -> 10  ], output grants = [ 9 -> 1  10 -> 7  11 -> 3  12 -> 5  14 -> 2  ].
3 | network_0/router_level3_2 | Assigning output 9.0 to VC 0 at input 1.0.
3 | network_0/router_level3_2 | Completed switch allocation for VC 0 at input 1 (front: 10).
3 | network_0/router_level3_2 |   Scheduling switch connection from input 1.0 to output 9.0.
3 | network_0/router_level3_2 | Updating lookahead routing information for flit 10.
4 | network_0/router_level3_0 | Beginning crossbar traversal for flit 1 from input 4.0 to output 11.0.
4 | network_0/router_level3_0 | Beginning crossbar traversal for flit 2 from input 5.0 to output 14.0.
4 | network_0/router_level3_0 | Completed crossbar traversal for flit 1 from input 4.0 to output 11.0.
4 | network_0/router_level3_0 | Buffering flit 1 at output 11.
4 | network_0/router_level3_0 | Completed crossbar traversal for flit 2 from input 5.0 to output 14.0.
4 | network_0/router_level3_0 | Buffering flit 2 at output 14.
4 | network_0/router_level3_1 | Beginning VC allocation for VC 0 at input 4 (front: 6).
4 | network_0/router_level3_1 |   Requesting VC 0 at output 12 (in_pri: 0, out_pri: 0).
4 | network_0/router_level3_1 |   VC 1 at output 12 is in use by VC 1 at input 1 (front flit: 2598).
4 | network_0/router_level3_1 |   Requesting VC 2 at output 12 (in_pri: 0, out_pri: 0).
4 | network_0/router_level3_1 |   Requesting VC 3 at output 12 (in_pri: 0, out_pri: 0).
4 | network_0/router_level3_1 | Beginning VC allocation for VC 0 at input 6 (front: 8).
4 | network_0/router_level3_1 |   Requesting VC 0 at output 12 (in_pri: 0, out_pri: 0).
4 | network_0/router_level3_1 |   VC 1 at output 12 is in use by VC 1 at input 1 (front flit: 2598).
4 | network_0/router_level3_1 |   Requesting VC 2 at output 12 (in_pri: 0, out_pri: 0).
4 | network_0/router_level3_1 |   Requesting VC 3 at output 12 (in_pri: 0, out_pri: 0).
4 | network_0/router_level3_1/vc_allocator | Input requests = [ 1 -> [ 48@0 50@0 51@0 ]  6 -> [ 56@0 57@0 58@0 59@0 ]  16 -> [ 48@0 50@0 51@0 ]  18 -> [ 52@0 53@0 54@0 55@0 ]  22 -> [ 48@0 50@0 51@0 ]  24 -> [ 48@0 50@0 51@0 ]  ], output requests = [ 48 -> [ 1@0 16@0 22@0 24@0 ]  50 -> [ 1@0 16@0 22@0 24@0 ]  51 -> [ 1@0 16@0 22@0 24@0 ]  52 -> [ 18@0 ]  53 -> [ 18@0 ]  54 -> [ 18@0 ]  55 -> [ 18@0 ]  56 -> [ 6@0 ]  57 -> [ 6@0 ]  58 -> [ 6@0 ]  59 -> [ 6@0 ]  ].
4 | network_0/router_level3_1/vc_allocator | Input grants = [ 1 -> 48  6 -> 56  18 -> 52  ], output grants = [ 48 -> 1  52 -> 18  56 -> 6  ].
4 | network_0/router_level3_1 | VC allocation failed for VC 0 at input 4.
4 | network_0/router_level3_1 | VC allocation failed for VC 0 at input 6.
4 | network_0/router_level3_1 | Beginning crossbar traversal for flit 3 from input 0.0 to output 12.0.
4 | network_0/router_level3_1 | Beginning crossbar traversal for flit 4 from input 1.0 to output 10.0.
4 | network_0/router_level3_1 | Beginning crossbar traversal for flit 5 from input 3.0 to output 15.0.
4 | network_0/router_level3_1 | Beginning crossbar traversal for flit 7 from input 5.0 to output 8.0.
4 | network_0/router_level3_1 | Beginning crossbar traversal for flit 9 from input 7.0 to output 13.0.
4 | network_0/router_level3_1 | Completed VC allocation for VC 0 at input 4 (front: 6).
4 | network_0/router_level3_1 |   No output VC allocated.
4 | network_0/router_level3_1 | Completed VC allocation for VC 0 at input 6 (front: 8).
4 | network_0/router_level3_1 |   No output VC allocated.
4 | network_0/router_level3_1 | Completed crossbar traversal for flit 3 from input 0.0 to output 12.0.
4 | network_0/router_level3_1 | Buffering flit 3 at output 12.
4 | network_0/router_level3_1 | Completed crossbar traversal for flit 4 from input 1.0 to output 10.0.
4 | network_0/router_level3_1 | Buffering flit 4 at output 10.
4 | network_0/router_level3_1 | Completed crossbar traversal for flit 5 from input 3.0 to output 15.0.
4 | network_0/router_level3_1 | Buffering flit 5 at output 15.
4 | network_0/router_level3_1 | Completed crossbar traversal for flit 7 from input 5.0 to output 8.0.
4 | network_0/router_level3_1 | Buffering flit 7 at output 8.
4 | network_0/router_level3_1 | Completed crossbar traversal for flit 9 from input 7.0 to output 13.0.
4 | network_0/router_level3_1 | Buffering flit 9 at output 13.
4 | network_0/router_level3_2 | Beginning crossbar traversal for flit 10 from input 1.0 to output 9.0.
4 | network_0/router_level3_2 | Completed crossbar traversal for flit 10 from input 1.0 to output 9.0.
4 | network_0/router_level3_2 | Buffering flit 10 at output 9.
4 | network_0/router_level3_0 | Sending flit 1 to channel at output 11.
4 | network_0/router_level3_0 | Sending flit 2 to channel at output 14.
4 | network_0/router_level3_1 | Sending flit 7 to channel at output 8.
4 | network_0/router_level3_1 | Sending flit 4 to channel at output 10.
4 | network_0/router_level3_1 | Sending flit 3 to channel at output 12.
4 | network_0/router_level3_1 | Sending flit 9 to channel at output 13.
4 | network_0/router_level3_1 | Sending flit 5 to channel at output 15.
4 | network_0/router_level3_2 | Sending flit 10 to channel at output 9.
5 | network_0/network_0_fchan_20483 | Beginning channel traversal for flit 1 with delay 1.
5 | network_0/network_0_fchan_20486 | Beginning channel traversal for flit 2 with delay 1.
5 | network_0/network_0_fchan_20488 | Beginning channel traversal for flit 7 with delay 1.
5 | network_0/network_0_fchan_20490 | Beginning channel traversal for flit 4 with delay 1.
5 | network_0/network_0_fchan_20492 | Beginning channel traversal for flit 3 with delay 1.
5 | network_0/network_0_fchan_20493 | Beginning channel traversal for flit 9 with delay 1.
5 | network_0/network_0_fchan_20495 | Beginning channel traversal for flit 5 with delay 1.
5 | network_0/network_0_fchan_20497 | Beginning channel traversal for flit 10 with delay 1.
5 | network_0/router_level3_1 | Beginning VC allocation for VC 0 at input 4 (front: 6).
5 | network_0/router_level3_1 |   VC 0 at output 12 is in use by VC 1 at input 0 (front flit: 5291).
5 | network_0/router_level3_1 |   Requesting VC 1 at output 12 (in_pri: 0, out_pri: 0).
5 | network_0/router_level3_1 |   Requesting VC 2 at output 12 (in_pri: 0, out_pri: 0).
5 | network_0/router_level3_1 |   Requesting VC 3 at output 12 (in_pri: 0, out_pri: 0).
5 | network_0/router_level3_1 | Beginning VC allocation for VC 0 at input 6 (front: 8).
5 | network_0/router_level3_1 |   VC 0 at output 12 is in use by VC 1 at input 0 (front flit: 5291).
5 | network_0/router_level3_1 |   Requesting VC 1 at output 12 (in_pri: 0, out_pri: 0).
5 | network_0/router_level3_1 |   Requesting VC 2 at output 12 (in_pri: 0, out_pri: 0).
5 | network_0/router_level3_1 |   Requesting VC 3 at output 12 (in_pri: 0, out_pri: 0).
5 | network_0/router_level3_1/vc_allocator | Input requests = [ 2 -> [ 53@0 54@0 55@0 ]  7 -> [ 36@0 37@0 38@0 39@0 ]  8 -> [ 57@0 58@0 59@0 ]  16 -> [ 49@0 50@0 51@0 ]  19 -> [ 53@0 54@0 55@0 ]  22 -> [ 49@0 50@0 51@0 ]  23 -> [ 57@0 58@0 59@0 ]  24 -> [ 49@0 50@0 51@0 ]  26 -> [ 44@0 45@0 46@0 47@0 ]  29 -> [ 57@0 58@0 59@0 ]  ], output requests = [ 36 -> [ 7@0 ]  37 -> [ 7@0 ]  38 -> [ 7@0 ]  39 -> [ 7@0 ]  44 -> [ 26@0 ]  45 -> [ 26@0 ]  46 -> [ 26@0 ]  47 -> [ 26@0 ]  49 -> [ 16@0 22@0 24@0 ]  50 -> [ 16@0 22@0 24@0 ]  51 -> [ 16@0 22@0 24@0 ]  53 -> [ 2@0 19@0 ]  54 -> [ 2@0 19@0 ]  55 -> [ 2@0 19@0 ]  57 -> [ 8@0 23@0 29@0 ]  58 -> [ 8@0 23@0 29@0 ]  59 -> [ 8@0 23@0 29@0 ]  ].
5 | network_0/router_level3_1/vc_allocator | Input grants = [ 2 -> 53  7 -> 36  8 -> 57  16 -> 49  26 -> 44  ], output grants = [ 36 -> 7  44 -> 26  49 -> 16  53 -> 2  57 -> 8  ].
5 | network_0/router_level3_1 | Assigning VC 1 at output 12 to VC 0 at input 4.
5 | network_0/router_level3_1 | VC allocation failed for VC 0 at input 6.
5 | network_0/router_level3_1 | Completed VC allocation for VC 0 at input 4 (front: 6).
5 | network_0/router_level3_1 |   Acquiring assigned VC 1 at output 12.
5 | network_0/router_level3_1/buf_4/vc_0 | Changing state from vc_alloc to active.
5 | network_0/router_level3_1 | Completed VC allocation for VC 0 at input 6 (front: 8).
5 | network_0/router_level3_1 |   No output VC allocated.
5 | network_0/network_0_fchan_20483 | Completed channel traversal for flit 1.
5 | network_0/network_0_fchan_20486 | Completed channel traversal for flit 2.
5 | network_0/network_0_fchan_20488 | Completed channel traversal for flit 7.
5 | network_0/network_0_fchan_20490 | Completed channel traversal for flit 4.
5 | network_0/network_0_fchan_20492 | Completed channel traversal for flit 3.
5 | network_0/network_0_fchan_20493 | Completed channel traversal for flit 9.
5 | network_0/network_0_fchan_20495 | Completed channel traversal for flit 5.
5 | network_0/network_0_fchan_20497 | Completed channel traversal for flit 10.
6 | network_0/router_level2_0 | Received flit 7 from channel at input 1.
6 | network_0/router_level2_1 | Received flit 10 from channel at input 2.
6 | network_0/router_level2_2 | Received flit 4 from channel at input 1.
6 | network_0/router_level2_3 | Received flit 1 from channel at input 0.
6 | network_0/router_level2_4 | Received flit 3 from channel at input 1.
6 | network_0/router_level2_5 | Received flit 9 from channel at input 1.
6 | network_0/router_level2_6 | Received flit 2 from channel at input 0.
6 | network_0/router_level2_7 | Received flit 5 from channel at input 1.
6 | network_0/router_level2_0 | Adding flit 7 to VC 0 at input 1 (state: idle, empty).
6 | network_0/router_level2_0 | Using precomputed lookahead routing information for VC 0 at input 1 (front: 7).
6 | network_0/router_level2_0/buf_1/vc_0 | Changing state from idle to vc_alloc.
6 | network_0/router_level2_0 | Beginning VC allocation for VC 0 at input 1 (front: 7).
6 | network_0/router_level2_0 |   Requesting VC 0 at output 8 (in_pri: 0, out_pri: 0).
6 | network_0/router_level2_0 |   Requesting VC 1 at output 8 (in_pri: 0, out_pri: 0).
6 | network_0/router_level2_0 |   Requesting VC 2 at output 8 (in_pri: 0, out_pri: 0).
6 | network_0/router_level2_0 |   Requesting VC 3 at output 8 (in_pri: 0, out_pri: 0).
6 | network_0/router_level2_0/vc_allocator | Input requests = [ 4 -> [ 32@0 33@0 34@0 35@0 ]  16 -> [ 36@0 37@0 38@0 39@0 ]  20 -> [ 56@0 57@0 58@0 59@0 ]  28 -> [ 32@0 33@0 34@0 35@0 ]  ], output requests = [ 32 -> [ 4@0 28@0 ]  33 -> [ 4@0 28@0 ]  34 -> [ 4@0 28@0 ]  35 -> [ 4@0 28@0 ]  36 -> [ 16@0 ]  37 -> [ 16@0 ]  38 -> [ 16@0 ]  39 -> [ 16@0 ]  56 -> [ 20@0 ]  57 -> [ 20@0 ]  58 -> [ 20@0 ]  59 -> [ 20@0 ]  ].
6 | network_0/router_level2_0/vc_allocator | Input grants = [ 4 -> 32  16 -> 36  20 -> 56  ], output grants = [ 32 -> 4  36 -> 16  56 -> 20  ].
6 | network_0/router_level2_0 | Assigning VC 0 at output 8 to VC 0 at input 1.
6 | network_0/router_level2_0 | Completed VC allocation for VC 0 at input 1 (front: 7).
6 | network_0/router_level2_0 |   Acquiring assigned VC 0 at output 8.
6 | network_0/router_level2_0/buf_1/vc_0 | Changing state from vc_alloc to active.
6 | network_0/router_level2_1 | Adding flit 10 to VC 0 at input 2 (state: idle, empty).
6 | network_0/router_level2_1 | Using precomputed lookahead routing information for VC 0 at input 2 (front: 10).
6 | network_0/router_level2_1/buf_2/vc_0 | Changing state from idle to vc_alloc.
6 | network_0/router_level2_1 | Beginning VC allocation for VC 0 at input 2 (front: 10).
6 | network_0/router_level2_1 |   Requesting VC 0 at output 15 (in_pri: 0, out_pri: 0).
6 | network_0/router_level2_1 |   Requesting VC 1 at output 15 (in_pri: 0, out_pri: 0).
6 | network_0/router_level2_1 |   Requesting VC 2 at output 15 (in_pri: 0, out_pri: 0).
6 | network_0/router_level2_1 |   Requesting VC 3 at output 15 (in_pri: 0, out_pri: 0).
6 | network_0/router_level2_1/vc_allocator | Input requests = [ 8 -> [ 60@0 61@0 62@0 63@0 ]  12 -> [ 36@0 37@0 38@0 39@0 ]  16 -> [ 60@0 61@0 62@0 63@0 ]  20 -> [ 36@0 37@0 38@0 39@0 ]  28 -> [ 48@0 49@0 50@0 51@0 ]  ], output requests = [ 36 -> [ 12@0 20@0 ]  37 -> [ 12@0 20@0 ]  38 -> [ 12@0 20@0 ]  39 -> [ 12@0 20@0 ]  48 -> [ 28@0 ]  49 -> [ 28@0 ]  50 -> [ 28@0 ]  51 -> [ 28@0 ]  60 -> [ 8@0 16@0 ]  61 -> [ 8@0 16@0 ]  62 -> [ 8@0 16@0 ]  63 -> [ 8@0 16@0 ]  ].
6 | network_0/router_level2_1/vc_allocator | Input grants = [ 8 -> 60  12 -> 36  28 -> 48  ], output grants = [ 36 -> 12  48 -> 28  60 -> 8  ].
6 | network_0/router_level2_1 | Assigning VC 0 at output 15 to VC 0 at input 2.
6 | network_0/router_level2_1 | Completed VC allocation for VC 0 at input 2 (front: 10).
6 | network_0/router_level2_1 |   Acquiring assigned VC 0 at output 15.
6 | network_0/router_level2_1/buf_2/vc_0 | Changing state from vc_alloc to active.
6 | network_0/router_level2_2 | Adding flit 4 to VC 0 at input 1 (state: idle, empty).
6 | network_0/router_level2_2 | Using precomputed lookahead routing information for VC 0 at input 1 (front: 4).
6 | network_0/router_level2_2/buf_1/vc_0 | Changing state from idle to vc_alloc.
6 | network_0/router_level2_2 | Beginning VC allocation for VC 0 at input 1 (front: 4).
6 | network_0/router_level2_2 |   Requesting VC 0 at output 10 (in_pri: 0, out_pri: 0).
6 | network_0/router_level2_2 |   Requesting VC 1 at output 10 (in_pri: 0, out_pri: 0).
6 | network_0/router_level2_2 |   Requesting VC 2 at output 10 (in_pri: 0, out_pri: 0).
6 | network_0/router_level2_2 |   Requesting VC 3 at output 10 (in_pri: 0, out_pri: 0).
6 | network_0/router_level2_2/vc_allocator | Input requests = [ 0 -> [ 48@0 49@0 50@0 51@0 ]  4 -> [ 40@0 41@0 42@0 43@0 ]  8 -> [ 52@0 53@0 54@0 55@0 ]  24 -> [ 40@0 41@0 42@0 43@0 ]  ], output requests = [ 40 -> [ 4@0 24@0 ]  41 -> [ 4@0 24@0 ]  42 -> [ 4@0 24@0 ]  43 -> [ 4@0 24@0 ]  48 -> [ 0@0 ]  49 -> [ 0@0 ]  50 -> [ 0@0 ]  51 -> [ 0@0 ]  52 -> [ 8@0 ]  53 -> [ 8@0 ]  54 -> [ 8@0 ]  55 -> [ 8@0 ]  ].
6 | network_0/router_level2_2/vc_allocator | Input grants = [ 0 -> 48  4 -> 40  8 -> 52  ], output grants = [ 40 -> 4  48 -> 0  52 -> 8  ].
6 | network_0/router_level2_2 | Assigning VC 0 at output 10 to VC 0 at input 1.
6 | network_0/router_level2_2 | Completed VC allocation for VC 0 at input 1 (front: 4).
6 | network_0/router_level2_2 |   Acquiring assigned VC 0 at output 10.
6 | network_0/router_level2_2/buf_1/vc_0 | Changing state from vc_alloc to active.
6 | network_0/router_level2_3 | Adding flit 1 to VC 0 at input 0 (state: idle, empty).
6 | network_0/router_level2_3 | Using precomputed lookahead routing information for VC 0 at input 0 (front: 1).
6 | network_0/router_level2_3/buf_0/vc_0 | Changing state from idle to vc_alloc.
6 | network_0/router_level2_3 | Beginning VC allocation for VC 0 at input 0 (front: 1).
6 | network_0/router_level2_3 |   Requesting VC 0 at output 11 (in_pri: 0, out_pri: 0).
6 | network_0/router_level2_3 |   Requesting VC 1 at output 11 (in_pri: 0, out_pri: 0).
6 | network_0/router_level2_3 |   Requesting VC 2 at output 11 (in_pri: 0, out_pri: 0).
6 | network_0/router_level2_3 |   Requesting VC 3 at output 11 (in_pri: 0, out_pri: 0).
6 | network_0/router_level2_3/vc_allocator | Input requests = [ 0 -> [ 44@0 45@0 46@0 47@0 ]  8 -> [ 52@0 53@0 54@0 55@0 ]  16 -> [ 32@0 33@0 34@0 35@0 ]  ], output requests = [ 32 -> [ 16@0 ]  33 -> [ 16@0 ]  34 -> [ 16@0 ]  35 -> [ 16@0 ]  44 -> [ 0@0 ]  45 -> [ 0@0 ]  46 -> [ 0@0 ]  47 -> [ 0@0 ]  52 -> [ 8@0 ]  53 -> [ 8@0 ]  54 -> [ 8@0 ]  55 -> [ 8@0 ]  ].
6 | network_0/router_level2_3/vc_allocator | Input grants = [ 0 -> 44  8 -> 52  16 -> 32  ], output grants = [ 32 -> 16  44 -> 0  52 -> 8  ].
6 | network_0/router_level2_3 | Assigning VC 0 at output 11 to VC 0 at input 0.
6 | network_0/router_level2_3 | Completed VC allocation for VC 0 at input 0 (front: 1).
6 | network_0/router_level2_3 |   Acquiring assigned VC 0 at output 11.
6 | network_0/router_level2_3/buf_0/vc_0 | Changing state from vc_alloc to active.
6 | network_0/router_level2_4 | Adding flit 3 to VC 0 at input 1 (state: idle, empty).
6 | network_0/router_level2_4 | Using precomputed lookahead routing information for VC 0 at input 1 (front: 3).
6 | network_0/router_level2_4/buf_1/vc_0 | Changing state from idle to vc_alloc.
6 | network_0/router_level2_4 | Beginning VC allocation for VC 0 at input 1 (front: 3).
6 | network_0/router_level2_4 |   Requesting VC 0 at output 10 (in_pri: 0, out_pri: 0).
6 | network_0/router_level2_4 |   Requesting VC 1 at output 10 (in_pri: 0, out_pri: 0).
6 | network_0/router_level2_4 |   Requesting VC 2 at output 10 (in_pri: 0, out_pri: 0).
6 | network_0/router_level2_4 |   Requesting VC 3 at output 10 (in_pri: 0, out_pri: 0).
6 | network_0/router_level2_4/vc_allocator | Input requests = [ 4 -> [ 40@0 41@0 42@0 43@0 ]  8 -> [ 56@0 57@0 58@0 59@0 ]  20 -> [ 36@0 37@0 38@0 39@0 ]  ], output requests = [ 36 -> [ 20@0 ]  37 -> [ 20@0 ]  38 -> [ 20@0 ]  39 -> [ 20@0 ]  40 -> [ 4@0 ]  41 -> [ 4@0 ]  42 -> [ 4@0 ]  43 -> [ 4@0 ]  56 -> [ 8@0 ]  57 -> [ 8@0 ]  58 -> [ 8@0 ]  59 -> [ 8@0 ]  ].
6 | network_0/router_level2_4/vc_allocator | Input grants = [ 4 -> 40  8 -> 56  20 -> 36  ], output grants = [ 36 -> 20  40 -> 4  56 -> 8  ].
6 | network_0/router_level2_4 | Assigning VC 0 at output 10 to VC 0 at input 1.
6 | network_0/router_level2_4 | Completed VC allocation for VC 0 at input 1 (front: 3).
6 | network_0/router_level2_4 |   Acquiring assigned VC 0 at output 10.
6 | network_0/router_level2_4/buf_1/vc_0 | Changing state from vc_alloc to active.
6 | network_0/router_level2_5 | Adding flit 9 to VC 0 at input 1 (state: idle, empty).
6 | network_0/router_level2_5 | Using precomputed lookahead routing information for VC 0 at input 1 (front: 9).
6 | network_0/router_level2_5/buf_1/vc_0 | Changing state from idle to vc_alloc.
6 | network_0/router_level2_5 | Beginning VC allocation for VC 0 at input 1 (front: 9).
6 | network_0/router_level2_5 |   Requesting VC 0 at output 12 (in_pri: 0, out_pri: 0).
6 | network_0/router_level2_5 |   Requesting VC 1 at output 12 (in_pri: 0, out_pri: 0).
6 | network_0/router_level2_5 |   Requesting VC 2 at output 12 (in_pri: 0, out_pri: 0).
6 | network_0/router_level2_5 |   Requesting VC 3 at output 12 (in_pri: 0, out_pri: 0).
6 | network_0/router_level2_5/vc_allocator | Input requests = [ 4 -> [ 48@0 49@0 50@0 51@0 ]  12 -> [ 56@0 57@0 58@0 59@0 ]  16 -> [ 56@0 57@0 58@0 59@0 ]  24 -> [ 36@0 37@0 38@0 39@0 ]  28 -> [ 48@0 49@0 50@0 51@0 ]  ], output requests = [ 36 -> [ 24@0 ]  37 -> [ 24@0 ]  38 -> [ 24@0 ]  39 -> [ 24@0 ]  48 -> [ 4@0 28@0 ]  49 -> [ 4@0 28@0 ]  50 -> [ 4@0 28@0 ]  51 -> [ 4@0 28@0 ]  56 -> [ 12@0 16@0 ]  57 -> [ 12@0 16@0 ]  58 -> [ 12@0 16@0 ]  59 -> [ 12@0 16@0 ]  ].
6 | network_0/router_level2_5/vc_allocator | Input grants = [ 4 -> 48  12 -> 56  24 -> 36  ], output grants = [ 36 -> 24  48 -> 4  56 -> 12  ].
6 | network_0/router_level2_5 | Assigning VC 0 at output 12 to VC 0 at input 1.
6 | network_0/router_level2_5 | Completed VC allocation for VC 0 at input 1 (front: 9).
6 | network_0/router_level2_5 |   Acquiring assigned VC 0 at output 12.
6 | network_0/router_level2_5/buf_1/vc_0 | Changing state from vc_alloc to active.
6 | network_0/router_level2_6 | Adding flit 2 to VC 0 at input 0 (state: idle, empty).
6 | network_0/router_level2_6 | Using precomputed lookahead routing information for VC 0 at input 0 (front: 2).
6 | network_0/router_level2_6/buf_0/vc_0 | Changing state from idle to vc_alloc.
6 | network_0/router_level2_6 | Beginning VC allocation for VC 0 at input 0 (front: 2).
6 | network_0/router_level2_6 |   Requesting VC 0 at output 11 (in_pri: 0, out_pri: 0).
6 | network_0/router_level2_6 |   Requesting VC 1 at output 11 (in_pri: 0, out_pri: 0).
6 | network_0/router_level2_6 |   Requesting VC 2 at output 11 (in_pri: 0, out_pri: 0).
6 | network_0/router_level2_6 |   Requesting VC 3 at output 11 (in_pri: 0, out_pri: 0).
6 | network_0/router_level2_6/vc_allocator | Input requests = [ 0 -> [ 44@0 45@0 46@0 47@0 ]  8 -> [ 56@0 57@0 58@0 59@0 ]  12 -> [ 48@0 49@0 50@0 51@0 ]  20 -> [ 36@0 37@0 38@0 39@0 ]  24 -> [ 32@0 33@0 34@0 35@0 ]  ], output requests = [ 32 -> [ 24@0 ]  33 -> [ 24@0 ]  34 -> [ 24@0 ]  35 -> [ 24@0 ]  36 -> [ 20@0 ]  37 -> [ 20@0 ]  38 -> [ 20@0 ]  39 -> [ 20@0 ]  44 -> [ 0@0 ]  45 -> [ 0@0 ]  46 -> [ 0@0 ]  47 -> [ 0@0 ]  48 -> [ 12@0 ]  49 -> [ 12@0 ]  50 -> [ 12@0 ]  51 -> [ 12@0 ]  56 -> [ 8@0 ]  57 -> [ 8@0 ]  58 -> [ 8@0 ]  59 -> [ 8@0 ]  ].
6 | network_0/router_level2_6/vc_allocator | Input grants = [ 0 -> 44  8 -> 56  12 -> 48  20 -> 36  24 -> 32  ], output grants = [ 32 -> 24  36 -> 20  44 -> 0  48 -> 12  56 -> 8  ].
6 | network_0/router_level2_6 | Assigning VC 0 at output 11 to VC 0 at input 0.
6 | network_0/router_level2_6 | Completed VC allocation for VC 0 at input 0 (front: 2).
6 | network_0/router_level2_6 |   Acquiring assigned VC 0 at output 11.
6 | network_0/router_level2_6/buf_0/vc_0 | Changing state from vc_alloc to active.
6 | network_0/router_level2_7 | Adding flit 5 to VC 0 at input 1 (state: idle, empty).
6 | network_0/router_level2_7 | Using precomputed lookahead routing information for VC 0 at input 1 (front: 5).
6 | network_0/router_level2_7/buf_1/vc_0 | Changing state from idle to vc_alloc.
6 | network_0/router_level2_7 | Beginning VC allocation for VC 0 at input 1 (front: 5).
6 | network_0/router_level2_7 |   Requesting VC 0 at output 10 (in_pri: 0, out_pri: 0).
6 | network_0/router_level2_7 |   Requesting VC 1 at output 10 (in_pri: 0, out_pri: 0).
6 | network_0/router_level2_7 |   Requesting VC 2 at output 10 (in_pri: 0, out_pri: 0).
6 | network_0/router_level2_7 |   Requesting VC 3 at output 10 (in_pri: 0, out_pri: 0).
6 | network_0/router_level2_7/vc_allocator | Input requests = [ 4 -> [ 40@0 41@0 42@0 43@0 ]  24 -> [ 44@0 45@0 46@0 47@0 ]  ], output requests = [ 40 -> [ 4@0 ]  41 -> [ 4@0 ]  42 -> [ 4@0 ]  43 -> [ 4@0 ]  44 -> [ 24@0 ]  45 -> [ 24@0 ]  46 -> [ 24@0 ]  47 -> [ 24@0 ]  ].
6 | network_0/router_level2_7/vc_allocator | Input grants = [ 4 -> 40  24 -> 44  ], output grants = [ 40 -> 4  44 -> 24  ].
6 | network_0/router_level2_7 | Assigning VC 0 at output 10 to VC 0 at input 1.
6 | network_0/router_level2_7 | Completed VC allocation for VC 0 at input 1 (front: 5).
6 | network_0/router_level2_7 |   Acquiring assigned VC 0 at output 10.
6 | network_0/router_level2_7/buf_1/vc_0 | Changing state from vc_alloc to active.
6 | network_0/router_level3_1 | Beginning VC allocation for VC 0 at input 6 (front: 8).
6 | network_0/router_level3_1 |   Requesting VC 0 at output 12 (in_pri: 0, out_pri: 0).
6 | network_0/router_level3_1 |   VC 1 at output 12 is in use by VC 0 at input 4 (front flit: 6).
6 | network_0/router_level3_1 |   Requesting VC 2 at output 12 (in_pri: 0, out_pri: 0).
6 | network_0/router_level3_1 |   Requesting VC 3 at output 12 (in_pri: 0, out_pri: 0).
6 | network_0/router_level3_1/vc_allocator | Input requests = [ 3 -> [ 45@0 46@0 47@0 ]  9 -> [ 37@0 38@0 39@0 ]  19 -> [ 52@0 54@0 55@0 ]  22 -> [ 48@0 50@0 51@0 ]  23 -> [ 56@0 58@0 59@0 ]  24 -> [ 48@0 50@0 51@0 ]  27 -> [ 32@0 33@0 34@0 35@0 ]  29 -> [ 56@0 58@0 59@0 ]  30 -> [ 37@0 38@0 39@0 ]  ], output requests = [ 32 -> [ 27@0 ]  33 -> [ 27@0 ]  34 -> [ 27@0 ]  35 -> [ 27@0 ]  37 -> [ 9@0 30@0 ]  38 -> [ 9@0 30@0 ]  39 -> [ 9@0 30@0 ]  45 -> [ 3@0 ]  46 -> [ 3@0 ]  47 -> [ 3@0 ]  48 -> [ 22@0 24@0 ]  50 -> [ 22@0 24@0 ]  51 -> [ 22@0 24@0 ]  52 -> [ 19@0 ]  54 -> [ 19@0 ]  55 -> [ 19@0 ]  56 -> [ 23@0 29@0 ]  58 -> [ 23@0 29@0 ]  59 -> [ 23@0 29@0 ]  ].
6 | network_0/router_level3_1/vc_allocator | Input grants = [ 3 -> 45  9 -> 37  19 -> 52  22 -> 48  23 -> 56  27 -> 32  ], output grants = [ 32 -> 27  37 -> 9  45 -> 3  48 -> 22  52 -> 19  56 -> 23  ].
6 | network_0/router_level3_1 | VC allocation failed for VC 0 at input 6.
6 | network_0/router_level3_1 | Beginning switch allocation for VC 0 at input 4 (front: 6).
6 | network_0/router_level3_1 |   Requesting output 12.0 (non-spec, pri: 0).
6 | network_0/router_level3_1/sw_allocator | Input requests = [ 0 -> [ 13@0 ]  1 -> [ 9@0 ]  2 -> [ 14@0 ]  4 -> [ 12@0 ]  6 -> [ 11@0 ]  ], output requests = [ 9 -> [ 1@0 ]  11 -> [ 6@0 ]  12 -> [ 4@0 ]  13 -> [ 0@0 ]  14 -> [ 2@0 ]  ].
6 | network_0/router_level3_1/sw_allocator | Input grants = [ 0 -> 13  1 -> 9  2 -> 14  4 -> 12  6 -> 11  ], output grants = [ 9 -> 1  11 -> 6  12 -> 4  13 -> 0  14 -> 2  ].
6 | network_0/router_level3_1 | Assigning output 12.0 to VC 0 at input 4.0.
6 | network_0/router_level3_1 | Completed VC allocation for VC 0 at input 6 (front: 8).
6 | network_0/router_level3_1 |   No output VC allocated.
6 | network_0/router_level3_1 | Completed switch allocation for VC 0 at input 4 (front: 6).
6 | network_0/router_level3_1 |   Scheduling switch connection from input 4.0 to output 12.0.
6 | network_0/router_level3_1 | Updating lookahead routing information for flit 6.
7 | network_0/router_level2_0 | Beginning switch allocation for VC 0 at input 1 (front: 7).
7 | network_0/router_level2_0 |   Requesting output 8.0 (non-spec, pri: 0).
7 | network_0/router_level2_0/sw_allocator | Input requests = [ 1 -> [ 8@0 ]  4 -> [ 9@0 ]  5 -> [ 14@0 ]  ], output requests = [ 8 -> [ 1@0 ]  9 -> [ 4@0 ]  14 -> [ 5@0 ]  ].
7 | network_0/router_level2_0/sw_allocator | Input grants = [ 1 -> 8  4 -> 9  5 -> 14  ], output grants = [ 8 -> 1  9 -> 4  14 -> 5  ].
7 | network_0/router_level2_0 | Assigning output 8.0 to VC 0 at input 1.0.
7 | network_0/router_level2_0 | Completed switch allocation for VC 0 at input 1 (front: 7).
7 | network_0/router_level2_0 |   Scheduling switch connection from input 1.0 to output 8.0.
7 | network_0/router_level2_0 | Updating lookahead routing information for flit 7.
7 | network_0/router_level2_1 | Beginning switch allocation for VC 0 at input 2 (front: 10).
7 | network_0/router_level2_1 |   Requesting output 15.0 (non-spec, pri: 0).
7 | network_0/router_level2_1/sw_allocator | Input requests = [ 2 -> [ 15@0 ]  3 -> [ 9@0 ]  7 -> [ 12@0 ]  ], output requests = [ 9 -> [ 3@0 ]  12 -> [ 7@0 ]  15 -> [ 2@0 ]  ].
7 | network_0/router_level2_1/sw_allocator | Input grants = [ 2 -> 15  3 -> 9  7 -> 12  ], output grants = [ 9 -> 3  12 -> 7  15 -> 2  ].
7 | network_0/router_level2_1 | Assigning output 15.0 to VC 0 at input 2.0.
7 | network_0/router_level2_1 | Completed switch allocation for VC 0 at input 2 (front: 10).
7 | network_0/router_level2_1 |   Scheduling switch connection from input 2.0 to output 15.0.
7 | network_0/router_level2_1 | Updating lookahead routing information for flit 10.
7 | network_0/router_level2_2 | Beginning switch allocation for VC 0 at input 1 (front: 4).
7 | network_0/router_level2_2 |   Requesting output 10.0 (non-spec, pri: 0).
7 | network_0/router_level2_2/sw_allocator | Input requests = [ 0 -> [ 12@0 ]  1 -> [ 10@0 ]  2 -> [ 13@0 ]  ], output requests = [ 10 -> [ 1@0 ]  12 -> [ 0@0 ]  13 -> [ 2@0 ]  ].
7 | network_0/router_level2_2/sw_allocator | Input grants = [ 0 -> 12  1 -> 10  2 -> 13  ], output grants = [ 10 -> 1  12 -> 0  13 -> 2  ].
7 | network_0/router_level2_2 | Assigning output 10.0 to VC 0 at input 1.0.
7 | network_0/router_level2_2 | Completed switch allocation for VC 0 at input 1 (front: 4).
7 | network_0/router_level2_2 |   Scheduling switch connection from input 1.0 to output 10.0.
7 | network_0/router_level2_2 | Updating lookahead routing information for flit 4.
7 | network_0/router_level2_3 | Beginning switch allocation for VC 0 at input 0 (front: 1).
7 | network_0/router_level2_3 |   Requesting output 11.0 (non-spec, pri: 0).
7 | network_0/router_level2_3/sw_allocator | Input requests = [ 0 -> [ 11@0 ]  2 -> [ 13@0 ]  4 -> [ 8@0 ]  ], output requests = [ 8 -> [ 4@0 ]  11 -> [ 0@0 ]  13 -> [ 2@0 ]  ].
7 | network_0/router_level2_3/sw_allocator | Input grants = [ 0 -> 11  2 -> 13  4 -> 8  ], output grants = [ 8 -> 4  11 -> 0  13 -> 2  ].
7 | network_0/router_level2_3 | Assigning output 11.0 to VC 0 at input 0.0.
7 | network_0/router_level2_3 | Completed switch allocation for VC 0 at input 0 (front: 1).
7 | network_0/router_level2_3 |   Scheduling switch connection from input 0.0 to output 11.0.
7 | network_0/router_level2_3 | Updating lookahead routing information for flit 1.
7 | network_0/router_level2_4 | Beginning switch allocation for VC 0 at input 1 (front: 3).
7 | network_0/router_level2_4 |   Requesting output 10.0 (non-spec, pri: 0).
7 | network_0/router_level2_4/sw_allocator | Input requests = [ 1 -> [ 10@0 ]  2 -> [ 14@0 ]  5 -> [ 9@0 ]  ], output requests = [ 9 -> [ 5@0 ]  10 -> [ 1@0 ]  14 -> [ 2@0 ]  ].
7 | network_0/router_level2_4/sw_allocator | Input grants = [ 1 -> 10  2 -> 14  5 -> 9  ], output grants = [ 9 -> 5  10 -> 1  14 -> 2  ].
7 | network_0/router_level2_4 | Assigning output 10.0 to VC 0 at input 1.0.
7 | network_0/router_level2_4 | Completed switch allocation for VC 0 at input 1 (front: 3).
7 | network_0/router_level2_4 |   Scheduling switch connection from input 1.0 to output 10.0.
7 | network_0/router_level2_4 | Updating lookahead routing information for flit 3.
7 | network_0/router_level2_5 | Beginning switch allocation for VC 0 at input 1 (front: 9).
7 | network_0/router_level2_5 |   Requesting output 12.0 (non-spec, pri: 0).
7 | network_0/router_level2_5/sw_allocator | Input requests = [ 1 -> [ 12@0 ]  3 -> [ 14@0 ]  6 -> [ 9@0 ]  ], output requests = [ 9 -> [ 6@0 ]  12 -> [ 1@0 ]  14 -> [ 3@0 ]  ].
7 | network_0/router_level2_5/sw_allocator | Input grants = [ 1 -> 12  3 -> 14  6 -> 9  ], output grants = [ 9 -> 6  12 -> 1  14 -> 3  ].
7 | network_0/router_level2_5 | Assigning output 12.0 to VC 0 at input 1.0.
7 | network_0/router_level2_5 | Completed switch allocation for VC 0 at input 1 (front: 9).
7 | network_0/router_level2_5 |   Scheduling switch connection from input 1.0 to output 12.0.
7 | network_0/router_level2_5 | Updating lookahead routing information for flit 9.
7 | network_0/router_level2_6 | Beginning switch allocation for VC 0 at input 0 (front: 2).
7 | network_0/router_level2_6 |   Requesting output 11.0 (non-spec, pri: 0).
7 | network_0/router_level2_6/sw_allocator | Input requests = [ 0 -> [ 11@0 ]  2 -> [ 14@0 ]  3 -> [ 12@0 ]  5 -> [ 9@0 ]  6 -> [ 8@0 ]  ], output requests = [ 8 -> [ 6@0 ]  9 -> [ 5@0 ]  11 -> [ 0@0 ]  12 -> [ 3@0 ]  14 -> [ 2@0 ]  ].
7 | network_0/router_level2_6/sw_allocator | Input grants = [ 0 -> 11  2 -> 14  3 -> 12  5 -> 9  6 -> 8  ], output grants = [ 8 -> 6  9 -> 5  11 -> 0  12 -> 3  14 -> 2  ].
7 | network_0/router_level2_6 | Assigning output 11.0 to VC 0 at input 0.0.
7 | network_0/router_level2_6 | Completed switch allocation for VC 0 at input 0 (front: 2).
7 | network_0/router_level2_6 |   Scheduling switch connection from input 0.0 to output 11.0.
7 | network_0/router_level2_6 | Updating lookahead routing information for flit 2.
7 | network_0/router_level2_7 | Beginning switch allocation for VC 0 at input 1 (front: 5).
7 | network_0/router_level2_7 |   Requesting output 10.0 (non-spec, pri: 0).
7 | network_0/router_level2_7/sw_allocator | Input requests = [ 1 -> [ 10@0 ]  6 -> [ 11@0 ]  ], output requests = [ 10 -> [ 1@0 ]  11 -> [ 6@0 ]  ].
7 | network_0/router_level2_7/sw_allocator | Input grants = [ 1 -> 10  6 -> 11  ], output grants = [ 10 -> 1  11 -> 6  ].
7 | network_0/router_level2_7 | Assigning output 10.0 to VC 0 at input 1.0.
7 | network_0/router_level2_7 | Completed switch allocation for VC 0 at input 1 (front: 5).
7 | network_0/router_level2_7 |   Scheduling switch connection from input 1.0 to output 10.0.
7 | network_0/router_level2_7 | Updating lookahead routing information for flit 5.
7 | network_0/router_level3_1 | Beginning VC allocation for VC 0 at input 6 (front: 8).
7 | network_0/router_level3_1 |   VC 0 at output 12 is in use by VC 2 at input 5 (front flit: 5294).
7 | network_0/router_level3_1 |   Requesting VC 1 at output 12 (in_pri: 0, out_pri: 0).
7 | network_0/router_level3_1 |   Requesting VC 2 at output 12 (in_pri: 0, out_pri: 0).
7 | network_0/router_level3_1 |   Requesting VC 3 at output 12 (in_pri: 0, out_pri: 0).
7 | network_0/router_level3_1/vc_allocator | Input requests = [ 4 -> [ 60@0 61@0 62@0 63@0 ]  10 -> [ 33@0 34@0 35@0 ]  16 -> [ 33@0 34@0 35@0 ]  20 -> [ 40@0 41@0 42@0 43@0 ]  24 -> [ 49@0 50@0 51@0 ]  29 -> [ 57@0 58@0 59@0 ]  30 -> [ 36@0 38@0 39@0 ]  31 -> [ 33@0 34@0 35@0 ]  ], output requests = [ 33 -> [ 10@0 16@0 31@0 ]  34 -> [ 10@0 16@0 31@0 ]  35 -> [ 10@0 16@0 31@0 ]  36 -> [ 30@0 ]  38 -> [ 30@0 ]  39 -> [ 30@0 ]  40 -> [ 20@0 ]  41 -> [ 20@0 ]  42 -> [ 20@0 ]  43 -> [ 20@0 ]  49 -> [ 24@0 ]  50 -> [ 24@0 ]  51 -> [ 24@0 ]  57 -> [ 29@0 ]  58 -> [ 29@0 ]  59 -> [ 29@0 ]  60 -> [ 4@0 ]  61 -> [ 4@0 ]  62 -> [ 4@0 ]  63 -> [ 4@0 ]  ].
7 | network_0/router_level3_1/vc_allocator | Input grants = [ 4 -> 60  20 -> 40  24 -> 49  29 -> 57  30 -> 36  31 -> 33  ], output grants = [ 33 -> 31  36 -> 30  40 -> 20  49 -> 24  57 -> 29  60 -> 4  ].
7 | network_0/router_level3_1 | Assigning VC 1 at output 12 to VC 0 at input 6.
7 | network_0/router_level3_1 | Beginning crossbar traversal for flit 6 from input 4.0 to output 12.0.
7 | network_0/router_level3_1 | Completed VC allocation for VC 0 at input 6 (front: 8).
7 | network_0/router_level3_1 |   Acquiring assigned VC 1 at output 12.
7 | network_0/router_level3_1/buf_6/vc_0 | Changing state from vc_alloc to active.
7 | network_0/router_level3_1 | Completed crossbar traversal for flit 6 from input 4.0 to output 12.0.
7 | network_0/router_level3_1 | Buffering flit 6 at output 12.
7 | network_0/router_level3_1 | Sending flit 6 to channel at output 12.
8 | network_0/network_0_fchan_20492 | Beginning channel traversal for flit 6 with delay 1.
8 | network_0/router_level2_0 | Beginning crossbar traversal for flit 7 from input 1.0 to output 8.0.
8 | network_0/router_level2_0 | Completed crossbar traversal for flit 7 from input 1.0 to output 8.0.
8 | network_0/router_level2_0 | Buffering flit 7 at output 8.
8 | network_0/router_level2_1 | Beginning crossbar traversal for flit 10 from input 2.0 to output 15.0.
8 | network_0/router_level2_1 | Completed crossbar traversal for flit 10 from input 2.0 to output 15.0.
8 | network_0/router_level2_1 | Buffering flit 10 at output 15.
8 | network_0/router_level2_2 | Beginning crossbar traversal for flit 4 from input 1.0 to output 10.0.
8 | network_0/router_level2_2 | Completed crossbar traversal for flit 4 from input 1.0 to output 10.0.
8 | network_0/router_level2_2 | Buffering flit 4 at output 10.
8 | network_0/router_level2_3 | Beginning crossbar traversal for flit 1 from input 0.0 to output 11.0.
8 | network_0/router_level2_3 | Completed crossbar traversal for flit 1 from input 0.0 to output 11.0.
8 | network_0/router_level2_3 | Buffering flit 1 at output 11.
8 | network_0/router_level2_4 | Beginning crossbar traversal for flit 3 from input 1.0 to output 10.0.
8 | network_0/router_level2_4 | Completed crossbar traversal for flit 3 from input 1.0 to output 10.0.
8 | network_0/router_level2_4 | Buffering flit 3 at output 10.
8 | network_0/router_level2_5 | Beginning crossbar traversal for flit 9 from input 1.0 to output 12.0.
8 | network_0/router_level2_5 | Completed crossbar traversal for flit 9 from input 1.0 to output 12.0.
8 | network_0/router_level2_5 | Buffering flit 9 at output 12.
8 | network_0/router_level2_6 | Beginning crossbar traversal for flit 2 from input 0.0 to output 11.0.
8 | network_0/router_level2_6 | Completed crossbar traversal for flit 2 from input 0.0 to output 11.0.
8 | network_0/router_level2_6 | Buffering flit 2 at output 11.
8 | network_0/router_level2_7 | Beginning crossbar traversal for flit 5 from input 1.0 to output 10.0.
8 | network_0/router_level2_7 | Completed crossbar traversal for flit 5 from input 1.0 to output 10.0.
8 | network_0/router_level2_7 | Buffering flit 5 at output 10.
8 | network_0/router_level3_1 | Beginning switch allocation for VC 0 at input 6 (front: 8).
8 | network_0/router_level3_1 |   Requesting output 12.0 (non-spec, pri: 0).
8 | network_0/router_level3_1/sw_allocator | Input requests = [ 1 -> [ 15@0 ]  5 -> [ 10@0 14@0 ]  6 -> [ 12@0 ]  7 -> [ 8@0 9@0 14@0 ]  ], output requests = [ 8 -> [ 7@0 ]  9 -> [ 7@0 ]  10 -> [ 5@0 ]  12 -> [ 6@0 ]  14 -> [ 5@0 7@0 ]  15 -> [ 1@0 ]  ].
8 | network_0/router_level3_1/sw_allocator | Input grants = [ 1 -> 15  5 -> 14  6 -> 12  ], output grants = [ 12 -> 6  14 -> 5  15 -> 1  ].
8 | network_0/router_level3_1 | Assigning output 12.0 to VC 0 at input 6.0.
8 | network_0/router_level3_1 | Completed switch allocation for VC 0 at input 6 (front: 8).
8 | network_0/router_level3_1 |   Scheduling switch connection from input 6.0 to output 12.0.
8 | network_0/router_level3_1 | Updating lookahead routing information for flit 8.
8 | network_0/network_0_fchan_20492 | Completed channel traversal for flit 6.
8 | network_0/router_level2_0 | Sending flit 7 to channel at output 8.
8 | network_0/router_level2_1 | Sending flit 10 to channel at output 15.
8 | network_0/router_level2_2 | Sending flit 4 to channel at output 10.
8 | network_0/router_level2_3 | Sending flit 1 to channel at output 11.
8 | network_0/router_level2_4 | Sending flit 3 to channel at output 10.
8 | network_0/router_level2_5 | Sending flit 9 to channel at output 12.
8 | network_0/router_level2_6 | Sending flit 2 to channel at output 11.
8 | network_0/router_level2_7 | Sending flit 5 to channel at output 10.
9 | network_0/network_0_fchan_12288 | Beginning channel traversal for flit 7 with delay 1.
9 | network_0/network_0_fchan_12303 | Beginning channel traversal for flit 10 with delay 1.
9 | network_0/network_0_fchan_12306 | Beginning channel traversal for flit 4 with delay 1.
9 | network_0/network_0_fchan_12315 | Beginning channel traversal for flit 1 with delay 1.
9 | network_0/network_0_fchan_12322 | Beginning channel traversal for flit 3 with delay 1.
9 | network_0/network_0_fchan_12332 | Beginning channel traversal for flit 9 with delay 1.
9 | network_0/network_0_fchan_12339 | Beginning channel traversal for flit 2 with delay 1.
9 | network_0/network_0_fchan_12346 | Beginning channel traversal for flit 5 with delay 1.
9 | network_0/router_level2_4 | Received flit 6 from channel at input 1.
9 | network_0/router_level2_4 | Adding flit 6 to VC 1 at input 1 (state: idle, empty).
9 | network_0/router_level2_4 | Using precomputed lookahead routing information for VC 1 at input 1 (front: 6).
9 | network_0/router_level2_4/buf_1/vc_1 | Changing state from idle to vc_alloc.
9 | network_0/router_level2_4 | Beginning VC allocation for VC 1 at input 1 (front: 6).
9 | network_0/router_level2_4 |   VC 0 at output 11 is in use by VC 0 at input 6 (front flit: 5317).
9 | network_0/router_level2_4 |   Requesting VC 1 at output 11 (in_pri: 0, out_pri: 0).
9 | network_0/router_level2_4 |   Requesting VC 2 at output 11 (in_pri: 0, out_pri: 0).
9 | network_0/router_level2_4 |   Requesting VC 3 at output 11 (in_pri: 0, out_pri: 0).
9 | network_0/router_level2_4/vc_allocator | Input requests = [ 0 -> [ 41@0 42@0 43@0 ]  4 -> [ 37@0 38@0 39@0 ]  5 -> [ 45@0 46@0 47@0 ]  9 -> [ 41@0 42@0 43@0 ]  17 -> [ 32@0 33@0 34@0 35@0 ]  ], output requests = [ 32 -> [ 17@0 ]  33 -> [ 17@0 ]  34 -> [ 17@0 ]  35 -> [ 17@0 ]  37 -> [ 4@0 ]  38 -> [ 4@0 ]  39 -> [ 4@0 ]  41 -> [ 0@0 9@0 ]  42 -> [ 0@0 9@0 ]  43 -> [ 0@0 9@0 ]  45 -> [ 5@0 ]  46 -> [ 5@0 ]  47 -> [ 5@0 ]  ].
9 | network_0/router_level2_4/vc_allocator | Input grants = [ 4 -> 37  5 -> 45  9 -> 41  17 -> 32  ], output grants = [ 32 -> 17  37 -> 4  41 -> 9  45 -> 5  ].
9 | network_0/router_level2_4 | Assigning VC 1 at output 11 to VC 1 at input 1.
9 | network_0/router_level2_4 | Completed VC allocation for VC 1 at input 1 (front: 6).
9 | network_0/router_level2_4 |   Acquiring assigned VC 1 at output 11.
9 | network_0/router_level2_4/buf_1/vc_1 | Changing state from vc_alloc to active.
9 | network_0/router_level3_1 | Beginning crossbar traversal for flit 8 from input 6.0 to output 12.0.
9 | network_0/router_level3_1 | Completed crossbar traversal for flit 8 from input 6.0 to output 12.0.
9 | network_0/router_level3_1 | Buffering flit 8 at output 12.
9 | network_0/network_0_fchan_12288 | Completed channel traversal for flit 7.
9 | network_0/network_0_fchan_12303 | Completed channel traversal for flit 10.
9 | network_0/network_0_fchan_12306 | Completed channel traversal for flit 4.
9 | network_0/network_0_fchan_12315 | Completed channel traversal for flit 1.
9 | network_0/network_0_fchan_12322 | Completed channel traversal for flit 3.
9 | network_0/network_0_fchan_12332 | Completed channel traversal for flit 9.
9 | network_0/network_0_fchan_12339 | Completed channel traversal for flit 2.
9 | network_0/network_0_fchan_12346 | Completed channel traversal for flit 5.
9 | network_0/router_level3_1 | Sending flit 8 to channel at output 12.
10 | network_0/network_0_fchan_20492 | Beginning channel traversal for flit 8 with delay 1.
10 | network_0/router_level1_0 | Received flit 7 from channel at input 0.
10 | network_0/router_level1_18 | Received flit 4 from channel at input 0.
10 | network_0/router_level1_20 | Received flit 3 from channel at input 0.
10 | network_0/router_level1_23 | Received flit 5 from channel at input 0.
10 | network_0/router_level1_27 | Received flit 1 from channel at input 0.
10 | network_0/router_level1_30 | Received flit 2 from channel at input 0.
10 | network_0/router_level1_37 | Received flit 9 from channel at input 0.
10 | network_0/router_level1_57 | Received flit 10 from channel at input 0.
10 | network_0/router_level1_0 | Adding flit 7 to VC 0 at input 0 (state: idle, empty).
10 | network_0/router_level1_0 | Using precomputed lookahead routing information for VC 0 at input 0 (front: 7).
10 | network_0/router_level1_0/buf_0/vc_0 | Changing state from idle to vc_alloc.
10 | network_0/router_level1_0 | Beginning VC allocation for VC 0 at input 0 (front: 7).
10 | network_0/router_level1_0 |   Requesting VC 0 at output 14 (in_pri: 0, out_pri: 0).
10 | network_0/router_level1_0 |   Requesting VC 1 at output 14 (in_pri: 0, out_pri: 0).
10 | network_0/router_level1_0 |   Requesting VC 2 at output 14 (in_pri: 0, out_pri: 0).
10 | network_0/router_level1_0 |   Requesting VC 3 at output 14 (in_pri: 0, out_pri: 0).
10 | network_0/router_level1_0/vc_allocator | Input requests = [ 0 -> [ 56@0 57@0 58@0 59@0 ]  8 -> [ 52@0 53@0 54@0 55@0 ]  12 -> [ 44@0 45@0 46@0 47@0 ]  16 -> [ 48@0 49@0 50@0 51@0 ]  20 -> [ 4@0 5@0 6@0 7@0 ]  24 -> [ 56@0 57@0 58@0 59@0 ]  28 -> [ 52@0 53@0 54@0 55@0 ]  ], output requests = [ 4 -> [ 20@0 ]  5 -> [ 20@0 ]  6 -> [ 20@0 ]  7 -> [ 20@0 ]  44 -> [ 12@0 ]  45 -> [ 12@0 ]  46 -> [ 12@0 ]  47 -> [ 12@0 ]  48 -> [ 16@0 ]  49 -> [ 16@0 ]  50 -> [ 16@0 ]  51 -> [ 16@0 ]  52 -> [ 8@0 28@0 ]  53 -> [ 8@0 28@0 ]  54 -> [ 8@0 28@0 ]  55 -> [ 8@0 28@0 ]  56 -> [ 0@0 24@0 ]  57 -> [ 0@0 24@0 ]  58 -> [ 0@0 24@0 ]  59 -> [ 0@0 24@0 ]  ].
10 | network_0/router_level1_0/vc_allocator | Input grants = [ 0 -> 56  8 -> 52  12 -> 44  16 -> 48  20 -> 4  ], output grants = [ 4 -> 20  44 -> 12  48 -> 16  52 -> 8  56 -> 0  ].
10 | network_0/router_level1_0 | Assigning VC 0 at output 14 to VC 0 at input 0.
10 | network_0/router_level1_0 | Completed VC allocation for VC 0 at input 0 (front: 7).
10 | network_0/router_level1_0 |   Acquiring assigned VC 0 at output 14.
10 | network_0/router_level1_0/buf_0/vc_0 | Changing state from vc_alloc to active.
10 | network_0/router_level1_18 | Adding flit 4 to VC 0 at input 0 (state: idle, empty).
10 | network_0/router_level1_18 | Using precomputed lookahead routing information for VC 0 at input 0 (front: 4).
10 | network_0/router_level1_18/buf_0/vc_0 | Changing state from idle to vc_alloc.
10 | network_0/router_level1_18 | Beginning VC allocation for VC 0 at input 0 (front: 4).
10 | network_0/router_level1_18 |   Requesting VC 0 at output 12 (in_pri: 0, out_pri: 0).
10 | network_0/router_level1_18 |   Requesting VC 1 at output 12 (in_pri: 0, out_pri: 0).
10 | network_0/router_level1_18 |   Requesting VC 2 at output 12 (in_pri: 0, out_pri: 0).
10 | network_0/router_level1_18 |   Requesting VC 3 at output 12 (in_pri: 0, out_pri: 0).
10 | network_0/router_level1_18/vc_allocator | Input requests = [ 0 -> [ 48@0 49@0 50@0 51@0 ]  28 -> [ 36@0 37@0 38@0 39@0 ]  ], output requests = [ 36 -> [ 28@0 ]  37 -> [ 28@0 ]  38 -> [ 28@0 ]  39 -> [ 28@0 ]  48 -> [ 0@0 ]  49 -> [ 0@0 ]  50 -> [ 0@0 ]  51 -> [ 0@0 ]  ].
10 | network_0/router_level1_18/vc_allocator | Input grants = [ 0 -> 48  28 -> 36  ], output grants = [ 36 -> 28  48 -> 0  ].
10 | network_0/router_level1_18 | Assigning VC 0 at output 12 to VC 0 at input 0.
10 | network_0/router_level1_18 | Completed VC allocation for VC 0 at input 0 (front: 4).
10 | network_0/router_level1_18 |   Acquiring assigned VC 0 at output 12.
10 | network_0/router_level1_18/buf_0/vc_0 | Changing state from vc_alloc to active.
10 | network_0/router_level1_20 | Adding flit 3 to VC 0 at input 0 (state: idle, empty).
10 | network_0/router_level1_20 | Using precomputed lookahead routing information for VC 0 at input 0 (front: 3).
10 | network_0/router_level1_20/buf_0/vc_0 | Changing state from idle to vc_alloc.
10 | network_0/router_level1_20 | Beginning VC allocation for VC 0 at input 0 (front: 3).
10 | network_0/router_level1_20 |   Requesting VC 0 at output 13 (in_pri: 0, out_pri: 0).
10 | network_0/router_level1_20 |   Requesting VC 1 at output 13 (in_pri: 0, out_pri: 0).
10 | network_0/router_level1_20 |   Requesting VC 2 at output 13 (in_pri: 0, out_pri: 0).
10 | network_0/router_level1_20 |   Requesting VC 3 at output 13 (in_pri: 0, out_pri: 0).
10 | network_0/router_level1_20/vc_allocator | Input requests = [ 0 -> [ 52@0 53@0 54@0 55@0 ]  12 -> [ 32@0 33@0 34@0 35@0 ]  28 -> [ 56@0 57@0 58@0 59@0 ]  ], output requests = [ 32 -> [ 12@0 ]  33 -> [ 12@0 ]  34 -> [ 12@0 ]  35 -> [ 12@0 ]  52 -> [ 0@0 ]  53 -> [ 0@0 ]  54 -> [ 0@0 ]  55 -> [ 0@0 ]  56 -> [ 28@0 ]  57 -> [ 28@0 ]  58 -> [ 28@0 ]  59 -> [ 28@0 ]  ].
10 | network_0/router_level1_20/vc_allocator | Input grants = [ 0 -> 52  12 -> 32  28 -> 56  ], output grants = [ 32 -> 12  52 -> 0  56 -> 28  ].
10 | network_0/router_level1_20 | Assigning VC 0 at output 13 to VC 0 at input 0.
10 | network_0/router_level1_20 | Completed VC allocation for VC 0 at input 0 (front: 3).
10 | network_0/router_level1_20 |   Acquiring assigned VC 0 at output 13.
10 | network_0/router_level1_20/buf_0/vc_0 | Changing state from vc_alloc to active.
10 | network_0/router_level1_23 | Adding flit 5 to VC 0 at input 0 (state: idle, empty).
10 | network_0/router_level1_23 | Using precomputed lookahead routing information for VC 0 at input 0 (front: 5).
10 | network_0/router_level1_23/buf_0/vc_0 | Changing state from idle to vc_alloc.
10 | network_0/router_level1_23 | Beginning VC allocation for VC 0 at input 0 (front: 5).
10 | network_0/router_level1_23 |   Requesting VC 0 at output 13 (in_pri: 0, out_pri: 0).
10 | network_0/router_level1_23 |   Requesting VC 1 at output 13 (in_pri: 0, out_pri: 0).
10 | network_0/router_level1_23 |   Requesting VC 2 at output 13 (in_pri: 0, out_pri: 0).
10 | network_0/router_level1_23 |   Requesting VC 3 at output 13 (in_pri: 0, out_pri: 0).
10 | network_0/router_level1_23/vc_allocator | Input requests = [ 0 -> [ 52@0 53@0 54@0 55@0 ]  12 -> [ 60@0 61@0 62@0 63@0 ]  ], output requests = [ 52 -> [ 0@0 ]  53 -> [ 0@0 ]  54 -> [ 0@0 ]  55 -> [ 0@0 ]  60 -> [ 12@0 ]  61 -> [ 12@0 ]  62 -> [ 12@0 ]  63 -> [ 12@0 ]  ].
10 | network_0/router_level1_23/vc_allocator | Input grants = [ 0 -> 52  12 -> 60  ], output grants = [ 52 -> 0  60 -> 12  ].
10 | network_0/router_level1_23 | Assigning VC 0 at output 13 to VC 0 at input 0.
10 | network_0/router_level1_23 | Completed VC allocation for VC 0 at input 0 (front: 5).
10 | network_0/router_level1_23 |   Acquiring assigned VC 0 at output 13.
10 | network_0/router_level1_23/buf_0/vc_0 | Changing state from vc_alloc to active.
10 | network_0/router_level1_27 | Adding flit 1 to VC 0 at input 0 (state: idle, empty).
10 | network_0/router_level1_27 | Using precomputed lookahead routing information for VC 0 at input 0 (front: 1).
10 | network_0/router_level1_27/buf_0/vc_0 | Changing state from idle to vc_alloc.
10 | network_0/router_level1_27 | Beginning VC allocation for VC 0 at input 0 (front: 1).
10 | network_0/router_level1_27 |   Requesting VC 0 at output 10 (in_pri: 0, out_pri: 0).
10 | network_0/router_level1_27 |   Requesting VC 1 at output 10 (in_pri: 0, out_pri: 0).
10 | network_0/router_level1_27 |   Requesting VC 2 at output 10 (in_pri: 0, out_pri: 0).
10 | network_0/router_level1_27 |   Requesting VC 3 at output 10 (in_pri: 0, out_pri: 0).
10 | network_0/router_level1_27/vc_allocator | Input requests = [ 0 -> [ 40@0 41@0 42@0 43@0 ]  12 -> [ 52@0 53@0 54@0 55@0 ]  16 -> [ 60@0 61@0 62@0 63@0 ]  20 -> [ 40@0 41@0 42@0 43@0 ]  28 -> [ 60@0 61@0 62@0 63@0 ]  ], output requests = [ 40 -> [ 0@0 20@0 ]  41 -> [ 0@0 20@0 ]  42 -> [ 0@0 20@0 ]  43 -> [ 0@0 20@0 ]  52 -> [ 12@0 ]  53 -> [ 12@0 ]  54 -> [ 12@0 ]  55 -> [ 12@0 ]  60 -> [ 16@0 28@0 ]  61 -> [ 16@0 28@0 ]  62 -> [ 16@0 28@0 ]  63 -> [ 16@0 28@0 ]  ].
10 | network_0/router_level1_27/vc_allocator | Input grants = [ 0 -> 40  12 -> 52  16 -> 60  ], output grants = [ 40 -> 0  52 -> 12  60 -> 16  ].
10 | network_0/router_level1_27 | Assigning VC 0 at output 10 to VC 0 at input 0.
10 | network_0/router_level1_27 | Completed VC allocation for VC 0 at input 0 (front: 1).
10 | network_0/router_level1_27 |   Acquiring assigned VC 0 at output 10.
10 | network_0/router_level1_27/buf_0/vc_0 | Changing state from vc_alloc to active.
10 | network_0/router_level1_30 | Adding flit 2 to VC 0 at input 0 (state: idle, empty).
10 | network_0/router_level1_30 | Using precomputed lookahead routing information for VC 0 at input 0 (front: 2).
10 | network_0/router_level1_30/buf_0/vc_0 | Changing state from idle to vc_alloc.
10 | network_0/router_level1_30 | Beginning VC allocation for VC 0 at input 0 (front: 2).
10 | network_0/router_level1_30 |   Requesting VC 0 at output 9 (in_pri: 0, out_pri: 0).
10 | network_0/router_level1_30 |   Requesting VC 1 at output 9 (in_pri: 0, out_pri: 0).
10 | network_0/router_level1_30 |   Requesting VC 2 at output 9 (in_pri: 0, out_pri: 0).
10 | network_0/router_level1_30 |   Requesting VC 3 at output 9 (in_pri: 0, out_pri: 0).
10 | network_0/router_level1_30/vc_allocator | Input requests = [ 0 -> [ 36@0 37@0 38@0 39@0 ]  4 -> [ 44@0 45@0 46@0 47@0 ]  12 -> [ 44@0 45@0 46@0 47@0 ]  28 -> [ 52@0 53@0 54@0 55@0 ]  ], output requests = [ 36 -> [ 0@0 ]  37 -> [ 0@0 ]  38 -> [ 0@0 ]  39 -> [ 0@0 ]  44 -> [ 4@0 12@0 ]  45 -> [ 4@0 12@0 ]  46 -> [ 4@0 12@0 ]  47 -> [ 4@0 12@0 ]  52 -> [ 28@0 ]  53 -> [ 28@0 ]  54 -> [ 28@0 ]  55 -> [ 28@0 ]  ].
10 | network_0/router_level1_30/vc_allocator | Input grants = [ 0 -> 36  4 -> 44  28 -> 52  ], output grants = [ 36 -> 0  44 -> 4  52 -> 28  ].
10 | network_0/router_level1_30 | Assigning VC 0 at output 9 to VC 0 at input 0.
10 | network_0/router_level1_30 | Completed VC allocation for VC 0 at input 0 (front: 2).
10 | network_0/router_level1_30 |   Acquiring assigned VC 0 at output 9.
10 | network_0/router_level1_30/buf_0/vc_0 | Changing state from vc_alloc to active.
10 | network_0/router_level1_37 | Adding flit 9 to VC 0 at input 0 (state: idle, empty).
10 | network_0/router_level1_37 | Using precomputed lookahead routing information for VC 0 at input 0 (front: 9).
10 | network_0/router_level1_37/buf_0/vc_0 | Changing state from idle to vc_alloc.
10 | network_0/router_level1_37 | Beginning VC allocation for VC 0 at input 0 (front: 9).
10 | network_0/router_level1_37 |   Requesting VC 0 at output 7 (in_pri: 0, out_pri: 0).
10 | network_0/router_level1_37 |   Requesting VC 1 at output 7 (in_pri: 0, out_pri: 0).
10 | network_0/router_level1_37 |   Requesting VC 2 at output 7 (in_pri: 0, out_pri: 0).
10 | network_0/router_level1_37 |   Requesting VC 3 at output 7 (in_pri: 0, out_pri: 0).
10 | network_0/router_level1_37/vc_allocator | Input requests = [ 0 -> [ 28@0 29@0 30@0 31@0 ]  12 -> [ 44@0 45@0 46@0 47@0 ]  16 -> [ 24@0 25@0 26@0 27@0 ]  28 -> [ 56@0 57@0 58@0 59@0 ]  ], output requests = [ 24 -> [ 16@0 ]  25 -> [ 16@0 ]  26 -> [ 16@0 ]  27 -> [ 16@0 ]  28 -> [ 0@0 ]  29 -> [ 0@0 ]  30 -> [ 0@0 ]  31 -> [ 0@0 ]  44 -> [ 12@0 ]  45 -> [ 12@0 ]  46 -> [ 12@0 ]  47 -> [ 12@0 ]  56 -> [ 28@0 ]  57 -> [ 28@0 ]  58 -> [ 28@0 ]  59 -> [ 28@0 ]  ].
10 | network_0/router_level1_37/vc_allocator | Input grants = [ 0 -> 28  12 -> 44  16 -> 24  28 -> 56  ], output grants = [ 24 -> 16  28 -> 0  44 -> 12  56 -> 28  ].
10 | network_0/router_level1_37 | Assigning VC 0 at output 7 to VC 0 at input 0.
10 | network_0/router_level1_37 | Completed VC allocation for VC 0 at input 0 (front: 9).
10 | network_0/router_level1_37 |   Acquiring assigned VC 0 at output 7.
10 | network_0/router_level1_37/buf_0/vc_0 | Changing state from vc_alloc to active.
10 | network_0/router_level1_57 | Adding flit 10 to VC 0 at input 0 (state: idle, empty).
10 | network_0/router_level1_57 | Using precomputed lookahead routing information for VC 0 at input 0 (front: 10).
10 | network_0/router_level1_57/buf_0/vc_0 | Changing state from idle to vc_alloc.
[...]
29 | network_0/network_0_fchan_egress2440 | Beginning channel traversal for flit 4 with delay 1.
29 | network_0/network_0_fchan_egress3886 | Beginning channel traversal for flit 5 with delay 1.
29 | network_0/router_level3_171 | Received flit 6 from channel at input 12.
29 | network_0/router_level2_228 | Beginning crossbar traversal for flit 8 from input 14.0 to output 0.0.
29 | network_0/router_level2_228 | Completed crossbar traversal for flit 8 from input 14.0 to output 0.0.
29 | network_0/router_level2_228 | Buffering flit 8 at output 0.
29 | network_0/router_level3_129 | Beginning switch allocation for VC 0 at input 9 (front: 10).
29 | network_0/router_level3_129 |   Requesting output 6.0 (non-spec, pri: 0).
29 | network_0/router_level3_129/sw_allocator | Input requests = [ 0 -> [ 8@0 9@0 ]  1 -> [ 12@0 13@0 14@0 ]  2 -> [ 13@0 ]  3 -> [ 11@0 ]  4 -> [ 8@0 11@0 ]  5 -> [ 15@0 ]  7 -> [ 13@0 ]  9 -> [ 6@0 ]  11 -> [ 1@0 ]  12 -> [ 2@0 ]  ], output requests = [ 1 -> [ 11@0 ]  2 -> [ 12@0 ]  6 -> [ 9@0 ]  8 -> [ 0@0 4@0 ]  9 -> [ 0@0 ]  11 -> [ 3@0 4@0 ]  12 -> [ 1@0 ]  13 -> [ 1@0 2@0 7@0 ]  14 -> [ 1@0 ]  15 -> [ 5@0 ]  ].
29 | network_0/router_level3_129/sw_allocator | Input grants = [ 0 -> 8  1 -> 12  3 -> 11  5 -> 15  7 -> 13  9 -> 6  11 -> 1  12 -> 2  ], output grants = [ 1 -> 11  2 -> 12  6 -> 9  8 -> 0  11 -> 3  12 -> 1  13 -> 7  15 -> 5  ].
29 | network_0/router_level3_129 | Assigning output 6.0 to VC 0 at input 9.0.
29 | network_0/router_level3_129 | Completed switch allocation for VC 0 at input 9 (front: 10).
29 | network_0/router_level3_129 |   Scheduling switch connection from input 9.0 to output 6.0.
29 | network_0/router_level3_171 | Adding flit 6 to VC 0 at input 12 (state: idle, empty).
29 | network_0/router_level3_171 | Using precomputed lookahead routing information for VC 0 at input 12 (front: 6).
29 | network_0/router_level3_171/buf_12/vc_0 | Changing state from idle to vc_alloc.
29 | network_0/router_level3_171 | Beginning VC allocation for VC 0 at input 12 (front: 6).
29 | network_0/router_level3_171 |   VC 0 at output 2 is in use by VC 1 at input 14 (front flit: 2526).
29 | network_0/router_level3_171 |   Requesting VC 1 at output 2 (in_pri: 0, out_pri: 0).
29 | network_0/router_level3_171 |   Requesting VC 2 at output 2 (in_pri: 0, out_pri: 0).
29 | network_0/router_level3_171 |   Requesting VC 3 at output 2 (in_pri: 0, out_pri: 0).
29 | network_0/router_level3_171/vc_allocator | Input requests = [ 5 -> [ 34@0 ]  9 -> [ 36@0 37@0 38@0 39@0 ]  12 -> [ 61@0 62@0 63@0 ]  13 -> [ 54@0 55@0 ]  14 -> [ 42@0 43@0 ]  17 -> [ 36@0 37@0 38@0 39@0 ]  23 -> [ 54@0 55@0 ]  26 -> [ 56@0 57@0 59@0 ]  27 -> [ 56@0 57@0 59@0 ]  37 -> [ 16@0 17@0 18@0 19@0 ]  40 -> [ 0@0 1@0 2@0 3@0 ]  44 -> [ 16@0 17@0 18@0 19@0 ]  48 -> [ 9@0 10@0 11@0 ]  52 -> [ 20@0 21@0 22@0 23@0 ]  56 -> [ 16@0 17@0 18@0 19@0 ]  60 -> [ 12@0 13@0 14@0 15@0 ]  ], output requests = [ 0 -> [ 40@0 ]  1 -> [ 40@0 ]  2 -> [ 40@0 ]  3 -> [ 40@0 ]  9 -> [ 48@0 ]  10 -> [ 48@0 ]  11 -> [ 48@0 ]  12 -> [ 60@0 ]  13 -> [ 60@0 ]  14 -> [ 60@0 ]  15 -> [ 60@0 ]  16 -> [ 37@0 44@0 56@0 ]  17 -> [ 37@0 44@0 56@0 ]  18 -> [ 37@0 44@0 56@0 ]  19 -> [ 37@0 44@0 56@0 ]  20 -> [ 52@0 ]  21 -> [ 52@0 ]  22 -> [ 52@0 ]  23 -> [ 52@0 ]  34 -> [ 5@0 ]  36 -> [ 9@0 17@0 ]  37 -> [ 9@0 17@0 ]  38 -> [ 9@0 17@0 ]  39 -> [ 9@0 17@0 ]  42 -> [ 14@0 ]  43 -> [ 14@0 ]  54 -> [ 13@0 23@0 ]  55 -> [ 13@0 23@0 ]  56 -> [ 26@0 27@0 ]  57 -> [ 26@0 27@0 ]  59 -> [ 26@0 27@0 ]  61 -> [ 12@0 ]  62 -> [ 12@0 ]  63 -> [ 12@0 ]  ].
29 | network_0/router_level3_171/vc_allocator | Input grants = [ 5 -> 34  12 -> 61  13 -> 54  14 -> 42  17 -> 36  26 -> 57  27 -> 56  37 -> 16  40 -> 0  48 -> 9  52 -> 20  60 -> 13  ], output grants = [ 0 -> 40  9 -> 48  13 -> 60  16 -> 37  20 -> 52  34 -> 5  36 -> 17  42 -> 14  54 -> 13  56 -> 27  57 -> 26  61 -> 12  ].
29 | network_0/router_level3_171 | Assigning VC 1 at output 2 to VC 0 at input 12.
29 | network_0/router_level3_171 | Completed VC allocation for VC 0 at input 12 (front: 6).
29 | network_0/router_level3_171 |   Acquiring assigned VC 1 at output 2.
29 | network_0/router_level3_171/buf_12/vc_0 | Changing state from vc_alloc to active.
29 | network_0/network_0_fchan_egress1209 | Completed channel traversal for flit 3.
29 | network_0/network_0_fchan_egress1779 | Completed channel traversal for flit 2.
29 | network_0/network_0_fchan_egress1810 | Completed channel traversal for flit 7.
29 | network_0/network_0_fchan_egress1978 | Completed channel traversal for flit 1.
29 | network_0/network_0_fchan_egress2440 | Completed channel traversal for flit 4.
29 | network_0/network_0_fchan_egress3886 | Completed channel traversal for flit 5.
29 | network_0/router_level2_228 | Sending flit 8 to channel at output 0.
30 | node1209 | Ejecting flit 3 (packet 3) from VC 0.
30 | node1779 | Ejecting flit 2 (packet 2) from VC 1.
30 | node1810 | Ejecting flit 7 (packet 7) from VC 0.
30 | node1978 | Ejecting flit 1 (packet 1) from VC 0.
30 | node2440 | Ejecting flit 4 (packet 4) from VC 0.
30 | node3886 | Ejecting flit 5 (packet 5) from VC 0.
30 | network_0/network_0_fchan_18208 | Beginning channel traversal for flit 8 with delay 1.
30 | node1209 | Injecting credit for VC 0 into subnet 0.
30 | node1209 | Retiring flit 3 (packet 3, src = 8, dest = 1209, hops = 7, flat = 30).
30 | node1209 | Retiring packet 3 (plat = 30, nlat = 30, frag = 0, src = 8, dest = 1209).
30 | node1779 | Injecting credit for VC 1 into subnet 0.
30 | node1779 | Retiring flit 2 (packet 2, src = 5, dest = 1779, hops = 7, flat = 30).
30 | node1779 | Retiring packet 2 (plat = 30, nlat = 30, frag = 0, src = 5, dest = 1779).
30 | node1810 | Injecting credit for VC 0 into subnet 0.
30 | node1810 | Retiring flit 7 (packet 7, src = 13, dest = 1810, hops = 7, flat = 30).
30 | node1810 | Retiring packet 7 (plat = 30, nlat = 30, frag = 0, src = 13, dest = 1810).
30 | node1978 | Injecting credit for VC 0 into subnet 0.
30 | node1978 | Retiring flit 1 (packet 1, src = 4, dest = 1978, hops = 7, flat = 30).
30 | node1978 | Retiring packet 1 (plat = 30, nlat = 30, frag = 0, src = 4, dest = 1978).
30 | node2440 | Injecting credit for VC 0 into subnet 0.
30 | node2440 | Retiring flit 4 (packet 4, src = 9, dest = 2440, hops = 7, flat = 30).
30 | node2440 | Retiring packet 4 (plat = 30, nlat = 30, frag = 0, src = 9, dest = 2440).
30 | node3886 | Injecting credit for VC 0 into subnet 0.
30 | node3886 | Retiring flit 5 (packet 5, src = 11, dest = 3886, hops = 7, flat = 30).
30 | node3886 | Retiring packet 5 (plat = 30, nlat = 30, frag = 0, src = 11, dest = 3886).
30 | network_0/router_level3_129 | Beginning crossbar traversal for flit 10 from input 9.0 to output 6.0.
30 | network_0/router_level3_129 | Completed crossbar traversal for flit 10 from input 9.0 to output 6.0.
30 | network_0/router_level3_129 | Buffering flit 10 at output 6.
30 | network_0/router_level3_171 | Beginning switch allocation for VC 0 at input 12 (front: 6).
30 | network_0/router_level3_171 |   Requesting output 2.0 (non-spec, pri: 0).
30 | network_0/router_level3_171/sw_allocator | Input requests = [ 0 -> [ 13@0 ]  1 -> [ 8@0 10@0 15@0 ]  2 -> [ 8@0 ]  3 -> [ 10@0 13@0 15@0 ]  4 -> [ 8@0 9@0 ]  5 -> [ 11@0 ]  6 -> [ 14@0 ]  9 -> [ 4@0 ]  10 -> [ 0@0 ]  12 -> [ 2@0 ]  13 -> [ 5@0 ]  15 -> [ 3@0 ]  ], output requests = [ 0 -> [ 10@0 ]  2 -> [ 12@0 ]  3 -> [ 15@0 ]  4 -> [ 9@0 ]  5 -> [ 13@0 ]  8 -> [ 1@0 2@0 4@0 ]  9 -> [ 4@0 ]  10 -> [ 1@0 3@0 ]  11 -> [ 5@0 ]  13 -> [ 0@0 3@0 ]  14 -> [ 6@0 ]  15 -> [ 1@0 3@0 ]  ].
30 | network_0/router_level3_171/sw_allocator | Input grants = [ 0 -> 13  1 -> 10  2 -> 8  5 -> 11  6 -> 14  9 -> 4  10 -> 0  12 -> 2  13 -> 5  15 -> 3  ], output grants = [ 0 -> 10  2 -> 12  3 -> 15  4 -> 9  5 -> 13  8 -> 2  10 -> 1  11 -> 5  13 -> 0  14 -> 6  ].
30 | network_0/router_level3_171 | Assigning output 2.0 to VC 0 at input 12.0.
30 | network_0/router_level3_171 | Completed switch allocation for VC 0 at input 12 (front: 6).
30 | network_0/router_level3_171 |   Scheduling switch connection from input 12.0 to output 2.0.
30 | network_0/network_0_fchan_18208 | Completed channel traversal for flit 8.
30 | network_0/router_level3_129 | Sending flit 10 to channel at output 6.
31 | network_0/network_0_fchan_egress1038 | Beginning channel traversal for flit 10 with delay 1.
31 | network_0/router_level3_224 | Received flit 8 from channel at input 12.
31 | network_0/router_level3_171 | Beginning crossbar traversal for flit 6 from input 12.0 to output 2.0.
31 | network_0/router_level3_171 | Completed crossbar traversal for flit 6 from input 12.0 to output 2.0.
31 | network_0/router_level3_171 | Buffering flit 6 at output 2.
31 | network_0/router_level3_224 | Adding flit 8 to VC 0 at input 12 (state: idle, empty).
31 | network_0/router_level3_224 | Using precomputed lookahead routing information for VC 0 at input 12 (front: 8).
31 | network_0/router_level3_224/buf_12/vc_0 | Changing state from idle to vc_alloc.
31 | network_0/router_level3_224 | Beginning VC allocation for VC 0 at input 12 (front: 8).
31 | network_0/router_level3_224 |   Requesting VC 0 at output 3 (in_pri: 0, out_pri: 0).
31 | network_0/router_level3_224 |   Requesting VC 1 at output 3 (in_pri: 0, out_pri: 0).
31 | network_0/router_level3_224 |   Requesting VC 2 at output 3 (in_pri: 0, out_pri: 0).
31 | network_0/router_level3_224 |   Requesting VC 3 at output 3 (in_pri: 0, out_pri: 0).
31 | network_0/router_level3_224/vc_allocator | Input requests = [ 2 -> [ 48@0 49@0 50@0 51@0 ]  4 -> [ 45@0 46@0 47@0 ]  8 -> [ 45@0 46@0 47@0 ]  9 -> [ 45@0 46@0 47@0 ]  12 -> [ 52@0 53@0 54@0 55@0 ]  16 -> [ 45@0 46@0 47@0 ]  22 -> [ 33@0 34@0 35@0 ]  25 -> [ 56@0 59@0 ]  26 -> [ 45@0 46@0 47@0 ]  30 -> [ 56@0 59@0 ]  40 -> [ 0@0 1@0 2@0 3@0 ]  48 -> [ 12@0 13@0 14@0 15@0 ]  ], output requests = [ 0 -> [ 40@0 ]  1 -> [ 40@0 ]  2 -> [ 40@0 ]  3 -> [ 40@0 ]  12 -> [ 48@0 ]  13 -> [ 48@0 ]  14 -> [ 48@0 ]  15 -> [ 48@0 ]  33 -> [ 22@0 ]  34 -> [ 22@0 ]  35 -> [ 22@0 ]  45 -> [ 4@0 8@0 9@0 16@0 26@0 ]  46 -> [ 4@0 8@0 9@0 16@0 26@0 ]  47 -> [ 4@0 8@0 9@0 16@0 26@0 ]  48 -> [ 2@0 ]  49 -> [ 2@0 ]  50 -> [ 2@0 ]  51 -> [ 2@0 ]  52 -> [ 12@0 ]  53 -> [ 12@0 ]  54 -> [ 12@0 ]  55 -> [ 12@0 ]  56 -> [ 25@0 30@0 ]  59 -> [ 25@0 30@0 ]  ].
31 | network_0/router_level3_224/vc_allocator | Input grants = [ 2 -> 48  12 -> 52  16 -> 45  22 -> 33  25 -> 56  40 -> 1  48 -> 12  ], output grants = [ 1 -> 40  12 -> 48  33 -> 22  45 -> 16  48 -> 2  52 -> 12  56 -> 25  ].
31 | network_0/router_level3_224 | Assigning VC 0 at output 3 to VC 0 at input 12.
31 | network_0/router_level3_224 | Completed VC allocation for VC 0 at input 12 (front: 8).
31 | network_0/router_level3_224 |   Acquiring assigned VC 0 at output 3.
31 | network_0/router_level3_224/buf_12/vc_0 | Changing state from vc_alloc to active.
31 | network_0/network_0_fchan_egress1038 | Completed channel traversal for flit 10.
31 | network_0/router_level3_171 | Sending flit 6 to channel at output 2.
32 | node1038 | Ejecting flit 10 (packet 10) from VC 1.
32 | network_0/network_0_fchan_egress1370 | Beginning channel traversal for flit 6 with delay 1.
32 | node1038 | Injecting credit for VC 1 into subnet 0.
32 | node1038 | Retiring flit 10 (packet 10, src = 17, dest = 1038, hops = 7, flat = 32).
32 | node1038 | Retiring packet 10 (plat = 32, nlat = 32, frag = 0, src = 17, dest = 1038).
32 | network_0/router_level3_224 | Beginning switch allocation for VC 0 at input 12 (front: 8).
32 | network_0/router_level3_224 |   Requesting output 3.0 (non-spec, pri: 0).
32 | network_0/router_level3_224/sw_allocator | Input requests = [ 0 -> [ 11@0 12@0 ]  2 -> [ 14@0 ]  3 -> [ 13@0 ]  4 -> [ 11@0 ]  5 -> [ 8@0 ]  6 -> [ 14@0 ]  10 -> [ 0@0 ]  12 -> [ 3@0 ]  ], output requests = [ 0 -> [ 10@0 ]  3 -> [ 12@0 ]  8 -> [ 5@0 ]  11 -> [ 0@0 4@0 ]  12 -> [ 0@0 ]  13 -> [ 3@0 ]  14 -> [ 2@0 6@0 ]  ].
32 | network_0/router_level3_224/sw_allocator | Input grants = [ 0 -> 11  2 -> 14  3 -> 13  5 -> 8  10 -> 0  12 -> 3  ], output grants = [ 0 -> 10  3 -> 12  8 -> 5  11 -> 0  13 -> 3  14 -> 2  ].
32 | network_0/router_level3_224 | Assigning output 3.0 to VC 0 at input 12.0.
32 | network_0/router_level3_224 | Completed switch allocation for VC 0 at input 12 (front: 8).
32 | network_0/router_level3_224 |   Scheduling switch connection from input 12.0 to output 3.0.
32 | network_0/network_0_fchan_egress1370 | Completed channel traversal for flit 6.
33 | node1370 | Ejecting flit 6 (packet 6) from VC 1.
33 | node1370 | Injecting credit for VC 1 into subnet 0.
33 | node1370 | Retiring flit 6 (packet 6, src = 12, dest = 1370, hops = 7, flat = 33).
33 | node1370 | Retiring packet 6 (plat = 33, nlat = 33, frag = 0, src = 12, dest = 1370).
33 | network_0/router_level3_224 | Beginning crossbar traversal for flit 8 from input 12.0 to output 3.0.
33 | network_0/router_level3_224 | Completed crossbar traversal for flit 8 from input 12.0 to output 3.0.
33 | network_0/router_level3_224 | Buffering flit 8 at output 3.
33 | network_0/router_level3_224 | Sending flit 8 to channel at output 3.
34 | network_0/network_0_fchan_egress1795 | Beginning channel traversal for flit 8 with delay 1.
34 | network_0/network_0_fchan_egress1795 | Completed channel traversal for flit 8.
35 | node1795 | Ejecting flit 8 (packet 8) from VC 0.
35 | node1795 | Injecting credit for VC 0 into subnet 0.
35 | node1795 | Retiring flit 8 (packet 8, src = 14, dest = 1795, hops = 7, flat = 35).
35 | node1795 | Retiring packet 8 (plat = 35, nlat = 35, frag = 0, src = 14, dest = 1795).
Class 0:
Packet latency average = 79.9185
	minimum = 6
	maximum = 325
Network latency average = 79.9185
	minimum = 6
	maximum = 325
Slowest packet = 1746458
Flit latency average = 79.9185
	minimum = 6
	maximum = 325
Slowest flit = 1746458
Fragmentation average = 0
	minimum = 0
	maximum = 0
Injected packet rate average = 0.649729
	minimum = 0.596 (at node 746)
	maximum = 0.698 (at node 13)
Accepted packet rate average = 0.583461
	minimum = 0.503 (at node 2288)
	maximum = 0.67 (at node 2301)
Injected flit rate average = 0.649729
	minimum = 0.596 (at node 746)
	maximum = 0.698 (at node 13)
Accepted flit rate average= 0.583461
	minimum = 0.503 (at node 2288)
	maximum = 0.67 (at node 2301)
Injected packet length average = 1
Accepted packet length average = 1
Total in-flight flits = 271434 (0 measured)
latency change    = 1
throughput change = 1
Class 0:
Packet latency average = 96.8207
	minimum = 6
	maximum = 384
Network latency average = 96.8207
	minimum = 6
	maximum = 384
Slowest packet = 3978424
Flit latency average = 96.8207
	minimum = 6
	maximum = 384
Slowest flit = 3978424
Fragmentation average = 0
	minimum = 0
	maximum = 0
Injected packet rate average = 0.649816
	minimum = 0.6105 (at node 1425)
	maximum = 0.688 (at node 2257)
Accepted packet rate average = 0.610514
	minimum = 0.5495 (at node 660)
	maximum = 0.6655 (at node 1476)
Injected flit rate average = 0.649816
	minimum = 0.6105 (at node 1425)
	maximum = 0.688 (at node 2257)
Accepted flit rate average= 0.610514
	minimum = 0.5495 (at node 660)
	maximum = 0.6655 (at node 1476)
Injected packet length average = 1
Accepted packet length average = 1
Total in-flight flits = 321960 (0 measured)
latency change    = 0.174572
throughput change = 0.0443114
Class 0:
Packet latency average = 125.449
	minimum = 6
	maximum = 401
Network latency average = 125.449
	minimum = 6
	maximum = 401
Slowest packet = 6272260
Flit latency average = 125.449
	minimum = 6
	maximum = 401
Slowest flit = 6272260
Fragmentation average = 0
	minimum = 0
	maximum = 0
Injected packet rate average = 0.650043
	minimum = 0.598 (at node 688)
	maximum = 0.705 (at node 3032)
Accepted packet rate average = 0.644623
	minimum = 0.539 (at node 368)
	maximum = 0.729 (at node 374)
Injected flit rate average = 0.650043
	minimum = 0.598 (at node 688)
	maximum = 0.705 (at node 3032)
Accepted flit rate average= 0.644623
	minimum = 0.539 (at node 368)
	maximum = 0.729 (at node 374)
Injected packet length average = 1
Accepted packet length average = 1
Total in-flight flits = 344161 (0 measured)
latency change    = 0.228208
throughput change = 0.0529129
Warmed up ...Time used is 3000 cycles
Class 0:
Packet latency average = 129.317
	minimum = 6
	maximum = 409
Network latency average = 129.317
	minimum = 6
	maximum = 409
Slowest packet = 8902822
Flit latency average = 131.462
	minimum = 6
	maximum = 411
Slowest flit = 7245203
Fragmentation average = 0
	minimum = 0
	maximum = 0
Injected packet rate average = 0.649896
	minimum = 0.603 (at node 1114)
	maximum = 0.698 (at node 3432)
Accepted packet rate average = 0.647112
	minimum = 0.556 (at node 3801)
	maximum = 0.763 (at node 376)
Injected flit rate average = 0.649896
	minimum = 0.603 (at node 1114)
	maximum = 0.698 (at node 3432)
Accepted flit rate average= 0.647112
	minimum = 0.556 (at node 3801)
	maximum = 0.763 (at node 376)
Injected packet length average = 1
Accepted packet length average = 1
Total in-flight flits = 355563 (355563 measured)
latency change    = 0.0299115
throughput change = 0.00384634
Class 0:
Packet latency average = 132.331
	minimum = 6
	maximum = 482
Network latency average = 132.331
	minimum = 6
	maximum = 482
Slowest packet = 10578929
Flit latency average = 133.207
	minimum = 6
	maximum = 482
Slowest flit = 10578929
Fragmentation average = 0
	minimum = 0
	maximum = 0
Injected packet rate average = 0.649937
	minimum = 0.6135 (at node 1327)
	maximum = 0.686 (at node 2470)
Accepted packet rate average = 0.647847
	minimum = 0.591 (at node 1085)
	maximum = 0.7075 (at node 351)
Injected flit rate average = 0.649937
	minimum = 0.6135 (at node 1327)
	maximum = 0.686 (at node 2470)
Accepted flit rate average= 0.647847
	minimum = 0.591 (at node 1085)
	maximum = 0.7075 (at node 351)
Injected packet length average = 1
Accepted packet length average = 1
Total in-flight flits = 361285 (361285 measured)
latency change    = 0.0227738
throughput change = 0.00113507
Class 0:
Packet latency average = 133.758
	minimum = 6
	maximum = 482
Network latency average = 133.758
	minimum = 6
	maximum = 482
Slowest packet = 10578929
Flit latency average = 134.279
	minimum = 6
	maximum = 482
Slowest flit = 10578929
Fragmentation average = 0
	minimum = 0
	maximum = 0
Injected packet rate average = 0.650031
	minimum = 0.617333 (at node 1327)
	maximum = 0.682 (at node 2558)
Accepted packet rate average = 0.64833
	minimum = 0.599 (at node 1054)
	maximum = 0.692333 (at node 3201)
Injected flit rate average = 0.650031
	minimum = 0.617333 (at node 1327)
	maximum = 0.682 (at node 2558)
Accepted flit rate average= 0.64833
	minimum = 0.599 (at node 1054)
	maximum = 0.692333 (at node 3201)
Injected packet length average = 1
Accepted packet length average = 1
Total in-flight flits = 365054 (365054 measured)
latency change    = 0.0106665
throughput change = 0.000745229
Draining all recorded packets ...
Draining remaining packets ...
Time taken is 6625 cycles
====== Overall Traffic Statistics ======
====== Traffic class 0 ======
Packet latency average = 134.69 (1 samples)
	minimum = 6 (1 samples)
	maximum = 482 (1 samples)
Network latency average = 134.69 (1 samples)
	minimum = 6 (1 samples)
	maximum = 482 (1 samples)
Flit latency average = 135.139 (1 samples)
	minimum = 6 (1 samples)
	maximum = 482 (1 samples)
Fragmentation average = 0 (1 samples)
	minimum = 0 (1 samples)
	maximum = 0 (1 samples)
Injected packet rate average = 0.650031 (1 samples)
	minimum = 0.617333 (1 samples)
	maximum = 0.682 (1 samples)
Accepted packet rate average = 0.64833 (1 samples)
	minimum = 0.599 (1 samples)
	maximum = 0.692333 (1 samples)
Injected flit rate average = 0.650031 (1 samples)
	minimum = 0.617333 (1 samples)
	maximum = 0.682 (1 samples)
Accepted flit rate average = 0.64833 (1 samples)
	minimum = 0.599 (1 samples)
	maximum = 0.692333 (1 samples)
Injected packet size average = 1 (1 samples)
Accepted packet size average = 1 (1 samples)
Hops average = 6.71489 (1 samples)
Total run time 1630.78
