BEGIN Configuration File: examples/fattree_config_0.10_1_uniform
// $Id: dragonflyconfig 3555 2011-05-16 23:37:55Z dub $

// Copyright (c) 2007-2015, Trustees of The Leland Stanford Junior University
// All rights reserved.
//
// Redistribution and use in source and binary forms, with or without
// modification, are permitted provided that the following conditions are met:
//
// Redistributions of source code must retain the above copyright notice, this
// list of conditions and the following disclaimer.
// Redistributions in binary form must reproduce the above copyright notice,
// this list of conditions and the following disclaimer in the documentation
// and/or other materials provided with the distribution.
//
// THIS SOFTWARE IS PROVIDED BY THE COPYRIGHT HOLDERS AND CONTRIBUTORS "AS IS"
// AND ANY EXPRESS OR IMPLIED WARRANTIES, INCLUDING, BUT NOT LIMITED TO, THE
// IMPLIED WARRANTIES OF MERCHANTABILITY AND FITNESS FOR A PARTICULAR PURPOSE
// ARE DISCLAIMED. IN NO EVENT SHALL THE COPYRIGHT OWNER OR CONTRIBUTORS BE
// LIABLE FOR ANY DIRECT, INDIRECT, INCIDENTAL, SPECIAL, EXEMPLARY, OR
// CONSEQUENTIAL DAMAGES (INCLUDING, BUT NOT LIMITED TO, PROCUREMENT OF
// SUBSTITUTE GOODS OR SERVICES; LOSS OF USE, DATA, OR PROFITS; OR BUSINESS
// INTERRUPTION) HOWEVER CAUSED AND ON ANY THEORY OF LIABILITY, WHETHER IN
// CONTRACT, STRICT LIABILITY, OR TORT (INCLUDING NEGLIGENCE OR OTHERWISE)
// ARISING IN ANY WAY OUT OF THE USE OF THIS SOFTWARE, EVEN IF ADVISED OF THE
// POSSIBILITY OF SUCH DAMAGE.


hold_switch_for_packet=1;

vc_buf_size = 16;


wait_for_tail_credit = 0;

//
// Router architecture
//
vc_allocator = separable_input_first; 
sw_allocator = separable_input_first;
alloc_iters  = 1;

credit_delay   = 2;
routing_delay  = 0;
vc_alloc_delay = 1;
sw_alloc_delay = 1;
st_final_delay = 1;

input_speedup     = 1;
output_speedup    = 1;
internal_speedup  = 1.0;


warmup_periods = 3;
sim_count          = 1;

sample_period  = 1000;  

routing_function = nca;
num_vcs     = 4;

priority = none;
traffic = uniform;


injection_rate = 0.10;
packet_size = 1;
injection_rate_uses_flits=1;

topology = fattree;

k  = 8;
n  = 4;
t = 1;

watch_file = watchfile.txt;
watch_out=-;
stats_out = examples/fattree_config_0.10_1_uniform.m;

END Configuration File: examples/fattree_config_0.10_1_uniform
Fat Tree
 k = 8 levels = 4
 each switch - total radix =  16
 # of switches = 2048
 # of channels = 24576
 # of nodes ( size of network ) = 4096
 tapering factor = 1
0 | node34 | Enqueuing flit 1 (packet 1) at time 0.
0 | node62 | Enqueuing flit 2 (packet 2) at time 0.
0 | node77 | Enqueuing flit 3 (packet 3) at time 0.
0 | node84 | Enqueuing flit 4 (packet 4) at time 0.
0 | node93 | Enqueuing flit 5 (packet 5) at time 0.
0 | node101 | Enqueuing flit 6 (packet 6) at time 0.
0 | node102 | Enqueuing flit 7 (packet 7) at time 0.
0 | node110 | Enqueuing flit 8 (packet 8) at time 0.
0 | node119 | Enqueuing flit 9 (packet 9) at time 0.
0 | node121 | Enqueuing flit 10 (packet 10) at time 0.
0 | traffic_manager | Finding output VC for flit 1:
0 | traffic_manager |   Selected output VC 0.
0 | node34 | Generating lookahead routing info for flit 1.
0 | node34 | Injecting flit 1 into subnet 0 at time 0 with priority 0.
0 | traffic_manager | Finding output VC for flit 2:
0 | traffic_manager |   Selected output VC 0.
0 | node62 | Generating lookahead routing info for flit 2.
0 | node62 | Injecting flit 2 into subnet 0 at time 0 with priority 0.
0 | traffic_manager | Finding output VC for flit 3:
0 | traffic_manager |   Selected output VC 0.
0 | node77 | Generating lookahead routing info for flit 3.
0 | node77 | Injecting flit 3 into subnet 0 at time 0 with priority 0.
0 | traffic_manager | Finding output VC for flit 4:
0 | traffic_manager |   Selected output VC 0.
0 | node84 | Generating lookahead routing info for flit 4.
0 | node84 | Injecting flit 4 into subnet 0 at time 0 with priority 0.
0 | traffic_manager | Finding output VC for flit 5:
0 | traffic_manager |   Selected output VC 0.
0 | node93 | Generating lookahead routing info for flit 5.
0 | node93 | Injecting flit 5 into subnet 0 at time 0 with priority 0.
0 | traffic_manager | Finding output VC for flit 6:
0 | traffic_manager |   Selected output VC 0.
0 | node101 | Generating lookahead routing info for flit 6.
0 | node101 | Injecting flit 6 into subnet 0 at time 0 with priority 0.
0 | traffic_manager | Finding output VC for flit 7:
0 | traffic_manager |   Selected output VC 0.
0 | node102 | Generating lookahead routing info for flit 7.
0 | node102 | Injecting flit 7 into subnet 0 at time 0 with priority 0.
0 | traffic_manager | Finding output VC for flit 8:
0 | traffic_manager |   Selected output VC 0.
0 | node110 | Generating lookahead routing info for flit 8.
0 | node110 | Injecting flit 8 into subnet 0 at time 0 with priority 0.
0 | traffic_manager | Finding output VC for flit 9:
0 | traffic_manager |   Selected output VC 0.
0 | node119 | Generating lookahead routing info for flit 9.
0 | node119 | Injecting flit 9 into subnet 0 at time 0 with priority 0.
0 | traffic_manager | Finding output VC for flit 10:
0 | traffic_manager |   Selected output VC 0.
0 | node121 | Generating lookahead routing info for flit 10.
0 | node121 | Injecting flit 10 into subnet 0 at time 0 with priority 0.
1 | network_0/network_0_fchan_ingress34 | Beginning channel traversal for flit 1 with delay 1.
1 | network_0/network_0_fchan_ingress62 | Beginning channel traversal for flit 2 with delay 1.
1 | network_0/network_0_fchan_ingress77 | Beginning channel traversal for flit 3 with delay 1.
1 | network_0/network_0_fchan_ingress84 | Beginning channel traversal for flit 4 with delay 1.
1 | network_0/network_0_fchan_ingress93 | Beginning channel traversal for flit 5 with delay 1.
1 | network_0/network_0_fchan_ingress101 | Beginning channel traversal for flit 6 with delay 1.
1 | network_0/network_0_fchan_ingress102 | Beginning channel traversal for flit 7 with delay 1.
1 | network_0/network_0_fchan_ingress110 | Beginning channel traversal for flit 8 with delay 1.
1 | network_0/network_0_fchan_ingress119 | Beginning channel traversal for flit 9 with delay 1.
1 | network_0/network_0_fchan_ingress121 | Beginning channel traversal for flit 10 with delay 1.
1 | network_0/network_0_fchan_ingress34 | Completed channel traversal for flit 1.
1 | network_0/network_0_fchan_ingress62 | Completed channel traversal for flit 2.
1 | network_0/network_0_fchan_ingress77 | Completed channel traversal for flit 3.
1 | network_0/network_0_fchan_ingress84 | Completed channel traversal for flit 4.
1 | network_0/network_0_fchan_ingress93 | Completed channel traversal for flit 5.
1 | network_0/network_0_fchan_ingress101 | Completed channel traversal for flit 6.
1 | network_0/network_0_fchan_ingress102 | Completed channel traversal for flit 7.
1 | network_0/network_0_fchan_ingress110 | Completed channel traversal for flit 8.
1 | network_0/network_0_fchan_ingress119 | Completed channel traversal for flit 9.
1 | network_0/network_0_fchan_ingress121 | Completed channel traversal for flit 10.
2 | network_0/router_level3_4 | Received flit 1 from channel at input 2.
2 | network_0/router_level3_7 | Received flit 2 from channel at input 6.
2 | network_0/router_level3_9 | Received flit 3 from channel at input 5.
2 | network_0/router_level3_10 | Received flit 4 from channel at input 4.
2 | network_0/router_level3_11 | Received flit 5 from channel at input 5.
2 | network_0/router_level3_12 | Received flit 6 from channel at input 5.
2 | network_0/router_level3_12 | Received flit 7 from channel at input 6.
2 | network_0/router_level3_13 | Received flit 8 from channel at input 6.
2 | network_0/router_level3_14 | Received flit 9 from channel at input 7.
2 | network_0/router_level3_15 | Received flit 10 from channel at input 1.
2 | network_0/router_level3_4 | Adding flit 1 to VC 0 at input 2 (state: idle, empty).
2 | network_0/router_level3_4 | Using precomputed lookahead routing information for VC 0 at input 2 (front: 1).
2 | network_0/router_level3_4/buf_2/vc_0 | Changing state from idle to vc_alloc.
2 | network_0/router_level3_4 | Beginning VC allocation for VC 0 at input 2 (front: 1).
2 | network_0/router_level3_4 |   Requesting VC 0 at output 10 (in_pri: 0, out_pri: 0).
2 | network_0/router_level3_4 |   Requesting VC 1 at output 10 (in_pri: 0, out_pri: 0).
2 | network_0/router_level3_4 |   Requesting VC 2 at output 10 (in_pri: 0, out_pri: 0).
2 | network_0/router_level3_4 |   Requesting VC 3 at output 10 (in_pri: 0, out_pri: 0).
2 | network_0/router_level3_4/vc_allocator | Input requests = [ 8 -> [ 40@0 41@0 42@0 43@0 ]  ], output requests = [ 40 -> [ 8@0 ]  41 -> [ 8@0 ]  42 -> [ 8@0 ]  43 -> [ 8@0 ]  ].
2 | network_0/router_level3_4/vc_allocator | Input grants = [ 8 -> 40  ], output grants = [ 40 -> 8  ].
2 | network_0/router_level3_4 | Assigning VC 0 at output 10 to VC 0 at input 2.
2 | network_0/router_level3_4 | Completed VC allocation for VC 0 at input 2 (front: 1).
2 | network_0/router_level3_4 |   Acquiring assigned VC 0 at output 10.
2 | network_0/router_level3_4/buf_2/vc_0 | Changing state from vc_alloc to active.
2 | network_0/router_level3_7 | Adding flit 2 to VC 0 at input 6 (state: idle, empty).
2 | network_0/router_level3_7 | Using precomputed lookahead routing information for VC 0 at input 6 (front: 2).
2 | network_0/router_level3_7/buf_6/vc_0 | Changing state from idle to vc_alloc.
2 | network_0/router_level3_7 | Beginning VC allocation for VC 0 at input 6 (front: 2).
2 | network_0/router_level3_7 |   Requesting VC 0 at output 11 (in_pri: 0, out_pri: 0).
2 | network_0/router_level3_7 |   Requesting VC 1 at output 11 (in_pri: 0, out_pri: 0).
2 | network_0/router_level3_7 |   Requesting VC 2 at output 11 (in_pri: 0, out_pri: 0).
2 | network_0/router_level3_7 |   Requesting VC 3 at output 11 (in_pri: 0, out_pri: 0).
2 | network_0/router_level3_7/vc_allocator | Input requests = [ 24 -> [ 44@0 45@0 46@0 47@0 ]  ], output requests = [ 44 -> [ 24@0 ]  45 -> [ 24@0 ]  46 -> [ 24@0 ]  47 -> [ 24@0 ]  ].
2 | network_0/router_level3_7/vc_allocator | Input grants = [ 24 -> 44  ], output grants = [ 44 -> 24  ].
2 | network_0/router_level3_7 | Assigning VC 0 at output 11 to VC 0 at input 6.
2 | network_0/router_level3_7 | Completed VC allocation for VC 0 at input 6 (front: 2).
2 | network_0/router_level3_7 |   Acquiring assigned VC 0 at output 11.
2 | network_0/router_level3_7/buf_6/vc_0 | Changing state from vc_alloc to active.
2 | network_0/router_level3_9 | Adding flit 3 to VC 0 at input 5 (state: idle, empty).
2 | network_0/router_level3_9 | Using precomputed lookahead routing information for VC 0 at input 5 (front: 3).
2 | network_0/router_level3_9/buf_5/vc_0 | Changing state from idle to vc_alloc.
2 | network_0/router_level3_9 | Beginning VC allocation for VC 0 at input 5 (front: 3).
2 | network_0/router_level3_9 |   Requesting VC 0 at output 11 (in_pri: 0, out_pri: 0).
2 | network_0/router_level3_9 |   Requesting VC 1 at output 11 (in_pri: 0, out_pri: 0).
2 | network_0/router_level3_9 |   Requesting VC 2 at output 11 (in_pri: 0, out_pri: 0).
2 | network_0/router_level3_9 |   Requesting VC 3 at output 11 (in_pri: 0, out_pri: 0).
2 | network_0/router_level3_9/vc_allocator | Input requests = [ 20 -> [ 44@0 45@0 46@0 47@0 ]  ], output requests = [ 44 -> [ 20@0 ]  45 -> [ 20@0 ]  46 -> [ 20@0 ]  47 -> [ 20@0 ]  ].
2 | network_0/router_level3_9/vc_allocator | Input grants = [ 20 -> 44  ], output grants = [ 44 -> 20  ].
2 | network_0/router_level3_9 | Assigning VC 0 at output 11 to VC 0 at input 5.
2 | network_0/router_level3_9 | Completed VC allocation for VC 0 at input 5 (front: 3).
2 | network_0/router_level3_9 |   Acquiring assigned VC 0 at output 11.
2 | network_0/router_level3_9/buf_5/vc_0 | Changing state from vc_alloc to active.
2 | network_0/router_level3_10 | Adding flit 4 to VC 0 at input 4 (state: idle, empty).
2 | network_0/router_level3_10 | Using precomputed lookahead routing information for VC 0 at input 4 (front: 4).
2 | network_0/router_level3_10/buf_4/vc_0 | Changing state from idle to vc_alloc.
2 | network_0/router_level3_10 | Beginning VC allocation for VC 0 at input 4 (front: 4).
2 | network_0/router_level3_10 |   Requesting VC 0 at output 10 (in_pri: 0, out_pri: 0).
2 | network_0/router_level3_10 |   Requesting VC 1 at output 10 (in_pri: 0, out_pri: 0).
2 | network_0/router_level3_10 |   Requesting VC 2 at output 10 (in_pri: 0, out_pri: 0).
2 | network_0/router_level3_10 |   Requesting VC 3 at output 10 (in_pri: 0, out_pri: 0).
2 | network_0/router_level3_10/vc_allocator | Input requests = [ 16 -> [ 40@0 41@0 42@0 43@0 ]  ], output requests = [ 40 -> [ 16@0 ]  41 -> [ 16@0 ]  42 -> [ 16@0 ]  43 -> [ 16@0 ]  ].
2 | network_0/router_level3_10/vc_allocator | Input grants = [ 16 -> 40  ], output grants = [ 40 -> 16  ].
2 | network_0/router_level3_10 | Assigning VC 0 at output 10 to VC 0 at input 4.
2 | network_0/router_level3_10 | Completed VC allocation for VC 0 at input 4 (front: 4).
2 | network_0/router_level3_10 |   Acquiring assigned VC 0 at output 10.
2 | network_0/router_level3_10/buf_4/vc_0 | Changing state from vc_alloc to active.
2 | network_0/router_level3_11 | Adding flit 5 to VC 0 at input 5 (state: idle, empty).
2 | network_0/router_level3_11 | Using precomputed lookahead routing information for VC 0 at input 5 (front: 5).
2 | network_0/router_level3_11/buf_5/vc_0 | Changing state from idle to vc_alloc.
2 | network_0/router_level3_11 | Beginning VC allocation for VC 0 at input 5 (front: 5).
2 | network_0/router_level3_11 |   Requesting VC 0 at output 13 (in_pri: 0, out_pri: 0).
2 | network_0/router_level3_11 |   Requesting VC 1 at output 13 (in_pri: 0, out_pri: 0).
2 | network_0/router_level3_11 |   Requesting VC 2 at output 13 (in_pri: 0, out_pri: 0).
2 | network_0/router_level3_11 |   Requesting VC 3 at output 13 (in_pri: 0, out_pri: 0).
2 | network_0/router_level3_11/vc_allocator | Input requests = [ 20 -> [ 52@0 53@0 54@0 55@0 ]  ], output requests = [ 52 -> [ 20@0 ]  53 -> [ 20@0 ]  54 -> [ 20@0 ]  55 -> [ 20@0 ]  ].
2 | network_0/router_level3_11/vc_allocator | Input grants = [ 20 -> 52  ], output grants = [ 52 -> 20  ].
2 | network_0/router_level3_11 | Assigning VC 0 at output 13 to VC 0 at input 5.
2 | network_0/router_level3_11 | Completed VC allocation for VC 0 at input 5 (front: 5).
2 | network_0/router_level3_11 |   Acquiring assigned VC 0 at output 13.
2 | network_0/router_level3_11/buf_5/vc_0 | Changing state from vc_alloc to active.
2 | network_0/router_level3_12 | Adding flit 6 to VC 0 at input 5 (state: idle, empty).
2 | network_0/router_level3_12 | Using precomputed lookahead routing information for VC 0 at input 5 (front: 6).
2 | network_0/router_level3_12/buf_5/vc_0 | Changing state from idle to vc_alloc.
2 | network_0/router_level3_12 | Adding flit 7 to VC 0 at input 6 (state: idle, empty).
2 | network_0/router_level3_12 | Using precomputed lookahead routing information for VC 0 at input 6 (front: 7).
2 | network_0/router_level3_12/buf_6/vc_0 | Changing state from idle to vc_alloc.
2 | network_0/router_level3_12 | Beginning VC allocation for VC 0 at input 5 (front: 6).
2 | network_0/router_level3_12 |   Requesting VC 0 at output 15 (in_pri: 0, out_pri: 0).
2 | network_0/router_level3_12 |   Requesting VC 1 at output 15 (in_pri: 0, out_pri: 0).
2 | network_0/router_level3_12 |   Requesting VC 2 at output 15 (in_pri: 0, out_pri: 0).
2 | network_0/router_level3_12 |   Requesting VC 3 at output 15 (in_pri: 0, out_pri: 0).
2 | network_0/router_level3_12 | Beginning VC allocation for VC 0 at input 6 (front: 7).
2 | network_0/router_level3_12 |   Requesting VC 0 at output 9 (in_pri: 0, out_pri: 0).
2 | network_0/router_level3_12 |   Requesting VC 1 at output 9 (in_pri: 0, out_pri: 0).
2 | network_0/router_level3_12 |   Requesting VC 2 at output 9 (in_pri: 0, out_pri: 0).
2 | network_0/router_level3_12 |   Requesting VC 3 at output 9 (in_pri: 0, out_pri: 0).
2 | network_0/router_level3_12/vc_allocator | Input requests = [ 20 -> [ 60@0 61@0 62@0 63@0 ]  24 -> [ 36@0 37@0 38@0 39@0 ]  ], output requests = [ 36 -> [ 24@0 ]  37 -> [ 24@0 ]  38 -> [ 24@0 ]  39 -> [ 24@0 ]  60 -> [ 20@0 ]  61 -> [ 20@0 ]  62 -> [ 20@0 ]  63 -> [ 20@0 ]  ].
2 | network_0/router_level3_12/vc_allocator | Input grants = [ 20 -> 60  24 -> 36  ], output grants = [ 36 -> 24  60 -> 20  ].
2 | network_0/router_level3_12 | Assigning VC 0 at output 15 to VC 0 at input 5.
2 | network_0/router_level3_12 | Assigning VC 0 at output 9 to VC 0 at input 6.
2 | network_0/router_level3_12 | Completed VC allocation for VC 0 at input 5 (front: 6).
2 | network_0/router_level3_12 |   Acquiring assigned VC 0 at output 15.
2 | network_0/router_level3_12/buf_5/vc_0 | Changing state from vc_alloc to active.
2 | network_0/router_level3_12 | Completed VC allocation for VC 0 at input 6 (front: 7).
2 | network_0/router_level3_12 |   Acquiring assigned VC 0 at output 9.
2 | network_0/router_level3_12/buf_6/vc_0 | Changing state from vc_alloc to active.
2 | network_0/router_level3_13 | Adding flit 8 to VC 0 at input 6 (state: idle, empty).
2 | network_0/router_level3_13 | Using precomputed lookahead routing information for VC 0 at input 6 (front: 8).
2 | network_0/router_level3_13/buf_6/vc_0 | Changing state from idle to vc_alloc.
2 | network_0/router_level3_13 | Beginning VC allocation for VC 0 at input 6 (front: 8).
2 | network_0/router_level3_13 |   Requesting VC 0 at output 9 (in_pri: 0, out_pri: 0).
2 | network_0/router_level3_13 |   Requesting VC 1 at output 9 (in_pri: 0, out_pri: 0).
2 | network_0/router_level3_13 |   Requesting VC 2 at output 9 (in_pri: 0, out_pri: 0).
2 | network_0/router_level3_13 |   Requesting VC 3 at output 9 (in_pri: 0, out_pri: 0).
2 | network_0/router_level3_13/vc_allocator | Input requests = [ 24 -> [ 36@0 37@0 38@0 39@0 ]  ], output requests = [ 36 -> [ 24@0 ]  37 -> [ 24@0 ]  38 -> [ 24@0 ]  39 -> [ 24@0 ]  ].
2 | network_0/router_level3_13/vc_allocator | Input grants = [ 24 -> 36  ], output grants = [ 36 -> 24  ].
2 | network_0/router_level3_13 | Assigning VC 0 at output 9 to VC 0 at input 6.
2 | network_0/router_level3_13 | Completed VC allocation for VC 0 at input 6 (front: 8).
2 | network_0/router_level3_13 |   Acquiring assigned VC 0 at output 9.
2 | network_0/router_level3_13/buf_6/vc_0 | Changing state from vc_alloc to active.
2 | network_0/router_level3_14 | Adding flit 9 to VC 0 at input 7 (state: idle, empty).
2 | network_0/router_level3_14 | Using precomputed lookahead routing information for VC 0 at input 7 (front: 9).
2 | network_0/router_level3_14/buf_7/vc_0 | Changing state from idle to vc_alloc.
2 | network_0/router_level3_14 | Beginning VC allocation for VC 0 at input 7 (front: 9).
2 | network_0/router_level3_14 |   Requesting VC 0 at output 10 (in_pri: 0, out_pri: 0).
2 | network_0/router_level3_14 |   Requesting VC 1 at output 10 (in_pri: 0, out_pri: 0).
2 | network_0/router_level3_14 |   Requesting VC 2 at output 10 (in_pri: 0, out_pri: 0).
2 | network_0/router_level3_14 |   Requesting VC 3 at output 10 (in_pri: 0, out_pri: 0).
2 | network_0/router_level3_14/vc_allocator | Input requests = [ 28 -> [ 40@0 41@0 42@0 43@0 ]  ], output requests = [ 40 -> [ 28@0 ]  41 -> [ 28@0 ]  42 -> [ 28@0 ]  43 -> [ 28@0 ]  ].
2 | network_0/router_level3_14/vc_allocator | Input grants = [ 28 -> 40  ], output grants = [ 40 -> 28  ].
2 | network_0/router_level3_14 | Assigning VC 0 at output 10 to VC 0 at input 7.
2 | network_0/router_level3_14 | Completed VC allocation for VC 0 at input 7 (front: 9).
2 | network_0/router_level3_14 |   Acquiring assigned VC 0 at output 10.
2 | network_0/router_level3_14/buf_7/vc_0 | Changing state from vc_alloc to active.
2 | network_0/router_level3_15 | Adding flit 10 to VC 0 at input 1 (state: idle, empty).
2 | network_0/router_level3_15 | Using precomputed lookahead routing information for VC 0 at input 1 (front: 10).
2 | network_0/router_level3_15/buf_1/vc_0 | Changing state from idle to vc_alloc.
2 | network_0/router_level3_15 | Beginning VC allocation for VC 0 at input 1 (front: 10).
2 | network_0/router_level3_15 |   Requesting VC 0 at output 12 (in_pri: 0, out_pri: 0).
2 | network_0/router_level3_15 |   Requesting VC 1 at output 12 (in_pri: 0, out_pri: 0).
2 | network_0/router_level3_15 |   Requesting VC 2 at output 12 (in_pri: 0, out_pri: 0).
2 | network_0/router_level3_15 |   Requesting VC 3 at output 12 (in_pri: 0, out_pri: 0).
2 | network_0/router_level3_15/vc_allocator | Input requests = [ 4 -> [ 48@0 49@0 50@0 51@0 ]  ], output requests = [ 48 -> [ 4@0 ]  49 -> [ 4@0 ]  50 -> [ 4@0 ]  51 -> [ 4@0 ]  ].
2 | network_0/router_level3_15/vc_allocator | Input grants = [ 4 -> 48  ], output grants = [ 48 -> 4  ].
2 | network_0/router_level3_15 | Assigning VC 0 at output 12 to VC 0 at input 1.
2 | network_0/router_level3_15 | Completed VC allocation for VC 0 at input 1 (front: 10).
2 | network_0/router_level3_15 |   Acquiring assigned VC 0 at output 12.
2 | network_0/router_level3_15/buf_1/vc_0 | Changing state from vc_alloc to active.
3 | network_0/router_level3_4 | Beginning switch allocation for VC 0 at input 2 (front: 1).
3 | network_0/router_level3_4 |   Requesting output 10.0 (non-spec, pri: 0).
3 | network_0/router_level3_4/sw_allocator | Input requests = [ 2 -> [ 10@0 ]  ], output requests = [ 10 -> [ 2@0 ]  ].
3 | network_0/router_level3_4/sw_allocator | Input grants = [ 2 -> 10  ], output grants = [ 10 -> 2  ].
3 | network_0/router_level3_4 | Assigning output 10.0 to VC 0 at input 2.0.
3 | network_0/router_level3_4 | Completed switch allocation for VC 0 at input 2 (front: 1).
3 | network_0/router_level3_4 |   Scheduling switch connection from input 2.0 to output 10.0.
3 | network_0/router_level3_4 | Updating lookahead routing information for flit 1.
3 | network_0/router_level3_7 | Beginning switch allocation for VC 0 at input 6 (front: 2).
3 | network_0/router_level3_7 |   Requesting output 11.0 (non-spec, pri: 0).
3 | network_0/router_level3_7/sw_allocator | Input requests = [ 6 -> [ 11@0 ]  ], output requests = [ 11 -> [ 6@0 ]  ].
3 | network_0/router_level3_7/sw_allocator | Input grants = [ 6 -> 11  ], output grants = [ 11 -> 6  ].
3 | network_0/router_level3_7 | Assigning output 11.0 to VC 0 at input 6.0.
3 | network_0/router_level3_7 | Completed switch allocation for VC 0 at input 6 (front: 2).
3 | network_0/router_level3_7 |   Scheduling switch connection from input 6.0 to output 11.0.
3 | network_0/router_level3_7 | Updating lookahead routing information for flit 2.
3 | network_0/router_level3_9 | Beginning switch allocation for VC 0 at input 5 (front: 3).
3 | network_0/router_level3_9 |   Requesting output 11.0 (non-spec, pri: 0).
3 | network_0/router_level3_9/sw_allocator | Input requests = [ 5 -> [ 11@0 ]  ], output requests = [ 11 -> [ 5@0 ]  ].
3 | network_0/router_level3_9/sw_allocator | Input grants = [ 5 -> 11  ], output grants = [ 11 -> 5  ].
3 | network_0/router_level3_9 | Assigning output 11.0 to VC 0 at input 5.0.
3 | network_0/router_level3_9 | Completed switch allocation for VC 0 at input 5 (front: 3).
3 | network_0/router_level3_9 |   Scheduling switch connection from input 5.0 to output 11.0.
3 | network_0/router_level3_9 | Updating lookahead routing information for flit 3.
3 | network_0/router_level3_10 | Beginning switch allocation for VC 0 at input 4 (front: 4).
3 | network_0/router_level3_10 |   Requesting output 10.0 (non-spec, pri: 0).
3 | network_0/router_level3_10/sw_allocator | Input requests = [ 4 -> [ 10@0 ]  ], output requests = [ 10 -> [ 4@0 ]  ].
3 | network_0/router_level3_10/sw_allocator | Input grants = [ 4 -> 10  ], output grants = [ 10 -> 4  ].
3 | network_0/router_level3_10 | Assigning output 10.0 to VC 0 at input 4.0.
3 | network_0/router_level3_10 | Completed switch allocation for VC 0 at input 4 (front: 4).
3 | network_0/router_level3_10 |   Scheduling switch connection from input 4.0 to output 10.0.
3 | network_0/router_level3_10 | Updating lookahead routing information for flit 4.
3 | network_0/router_level3_11 | Beginning switch allocation for VC 0 at input 5 (front: 5).
3 | network_0/router_level3_11 |   Requesting output 13.0 (non-spec, pri: 0).
3 | network_0/router_level3_11/sw_allocator | Input requests = [ 5 -> [ 13@0 ]  ], output requests = [ 13 -> [ 5@0 ]  ].
3 | network_0/router_level3_11/sw_allocator | Input grants = [ 5 -> 13  ], output grants = [ 13 -> 5  ].
3 | network_0/router_level3_11 | Assigning output 13.0 to VC 0 at input 5.0.
3 | network_0/router_level3_11 | Completed switch allocation for VC 0 at input 5 (front: 5).
3 | network_0/router_level3_11 |   Scheduling switch connection from input 5.0 to output 13.0.
3 | network_0/router_level3_11 | Updating lookahead routing information for flit 5.
3 | network_0/router_level3_12 | Beginning switch allocation for VC 0 at input 5 (front: 6).
3 | network_0/router_level3_12 |   Requesting output 15.0 (non-spec, pri: 0).
3 | network_0/router_level3_12 | Beginning switch allocation for VC 0 at input 6 (front: 7).
3 | network_0/router_level3_12 |   Requesting output 9.0 (non-spec, pri: 0).
3 | network_0/router_level3_12/sw_allocator | Input requests = [ 5 -> [ 15@0 ]  6 -> [ 9@0 ]  ], output requests = [ 9 -> [ 6@0 ]  15 -> [ 5@0 ]  ].
3 | network_0/router_level3_12/sw_allocator | Input grants = [ 5 -> 15  6 -> 9  ], output grants = [ 9 -> 6  15 -> 5  ].
3 | network_0/router_level3_12 | Assigning output 15.0 to VC 0 at input 5.0.
3 | network_0/router_level3_12 | Assigning output 9.0 to VC 0 at input 6.0.
3 | network_0/router_level3_12 | Completed switch allocation for VC 0 at input 5 (front: 6).
3 | network_0/router_level3_12 |   Scheduling switch connection from input 5.0 to output 15.0.
3 | network_0/router_level3_12 | Updating lookahead routing information for flit 6.
3 | network_0/router_level3_12 | Completed switch allocation for VC 0 at input 6 (front: 7).
3 | network_0/router_level3_12 |   Scheduling switch connection from input 6.0 to output 9.0.
3 | network_0/router_level3_12 | Updating lookahead routing information for flit 7.
3 | network_0/router_level3_13 | Beginning switch allocation for VC 0 at input 6 (front: 8).
3 | network_0/router_level3_13 |   Requesting output 9.0 (non-spec, pri: 0).
3 | network_0/router_level3_13/sw_allocator | Input requests = [ 6 -> [ 9@0 ]  ], output requests = [ 9 -> [ 6@0 ]  ].
3 | network_0/router_level3_13/sw_allocator | Input grants = [ 6 -> 9  ], output grants = [ 9 -> 6  ].
3 | network_0/router_level3_13 | Assigning output 9.0 to VC 0 at input 6.0.
3 | network_0/router_level3_13 | Completed switch allocation for VC 0 at input 6 (front: 8).
3 | network_0/router_level3_13 |   Scheduling switch connection from input 6.0 to output 9.0.
3 | network_0/router_level3_13 | Updating lookahead routing information for flit 8.
3 | network_0/router_level3_14 | Beginning switch allocation for VC 0 at input 7 (front: 9).
3 | network_0/router_level3_14 |   Requesting output 10.0 (non-spec, pri: 0).
3 | network_0/router_level3_14/sw_allocator | Input requests = [ 7 -> [ 10@0 ]  ], output requests = [ 10 -> [ 7@0 ]  ].
3 | network_0/router_level3_14/sw_allocator | Input grants = [ 7 -> 10  ], output grants = [ 10 -> 7  ].
3 | network_0/router_level3_14 | Assigning output 10.0 to VC 0 at input 7.0.
3 | network_0/router_level3_14 | Completed switch allocation for VC 0 at input 7 (front: 9).
3 | network_0/router_level3_14 |   Scheduling switch connection from input 7.0 to output 10.0.
3 | network_0/router_level3_14 | Updating lookahead routing information for flit 9.
3 | network_0/router_level3_15 | Beginning switch allocation for VC 0 at input 1 (front: 10).
3 | network_0/router_level3_15 |   Requesting output 12.0 (non-spec, pri: 0).
3 | network_0/router_level3_15/sw_allocator | Input requests = [ 1 -> [ 12@0 ]  ], output requests = [ 12 -> [ 1@0 ]  ].
3 | network_0/router_level3_15/sw_allocator | Input grants = [ 1 -> 12  ], output grants = [ 12 -> 1  ].
3 | network_0/router_level3_15 | Assigning output 12.0 to VC 0 at input 1.0.
3 | network_0/router_level3_15 | Completed switch allocation for VC 0 at input 1 (front: 10).
3 | network_0/router_level3_15 |   Scheduling switch connection from input 1.0 to output 12.0.
3 | network_0/router_level3_15 | Updating lookahead routing information for flit 10.
4 | network_0/router_level3_4 | Beginning crossbar traversal for flit 1 from input 2.0 to output 10.0.
4 | network_0/router_level3_4 | Completed crossbar traversal for flit 1 from input 2.0 to output 10.0.
4 | network_0/router_level3_4 | Buffering flit 1 at output 10.
4 | network_0/router_level3_7 | Beginning crossbar traversal for flit 2 from input 6.0 to output 11.0.
4 | network_0/router_level3_7 | Completed crossbar traversal for flit 2 from input 6.0 to output 11.0.
4 | network_0/router_level3_7 | Buffering flit 2 at output 11.
4 | network_0/router_level3_9 | Beginning crossbar traversal for flit 3 from input 5.0 to output 11.0.
4 | network_0/router_level3_9 | Completed crossbar traversal for flit 3 from input 5.0 to output 11.0.
4 | network_0/router_level3_9 | Buffering flit 3 at output 11.
4 | network_0/router_level3_10 | Beginning crossbar traversal for flit 4 from input 4.0 to output 10.0.
4 | network_0/router_level3_10 | Completed crossbar traversal for flit 4 from input 4.0 to output 10.0.
4 | network_0/router_level3_10 | Buffering flit 4 at output 10.
4 | network_0/router_level3_11 | Beginning crossbar traversal for flit 5 from input 5.0 to output 13.0.
4 | network_0/router_level3_11 | Completed crossbar traversal for flit 5 from input 5.0 to output 13.0.
4 | network_0/router_level3_11 | Buffering flit 5 at output 13.
4 | network_0/router_level3_12 | Beginning crossbar traversal for flit 6 from input 5.0 to output 15.0.
4 | network_0/router_level3_12 | Beginning crossbar traversal for flit 7 from input 6.0 to output 9.0.
4 | network_0/router_level3_12 | Completed crossbar traversal for flit 6 from input 5.0 to output 15.0.
4 | network_0/router_level3_12 | Buffering flit 6 at output 15.
4 | network_0/router_level3_12 | Completed crossbar traversal for flit 7 from input 6.0 to output 9.0.
4 | network_0/router_level3_12 | Buffering flit 7 at output 9.
4 | network_0/router_level3_13 | Beginning crossbar traversal for flit 8 from input 6.0 to output 9.0.
4 | network_0/router_level3_13 | Completed crossbar traversal for flit 8 from input 6.0 to output 9.0.
4 | network_0/router_level3_13 | Buffering flit 8 at output 9.
4 | network_0/router_level3_14 | Beginning crossbar traversal for flit 9 from input 7.0 to output 10.0.
4 | network_0/router_level3_14 | Completed crossbar traversal for flit 9 from input 7.0 to output 10.0.
4 | network_0/router_level3_14 | Buffering flit 9 at output 10.
4 | network_0/router_level3_15 | Beginning crossbar traversal for flit 10 from input 1.0 to output 12.0.
4 | network_0/router_level3_15 | Completed crossbar traversal for flit 10 from input 1.0 to output 12.0.
4 | network_0/router_level3_15 | Buffering flit 10 at output 12.
4 | network_0/router_level3_4 | Sending flit 1 to channel at output 10.
4 | network_0/router_level3_7 | Sending flit 2 to channel at output 11.
4 | network_0/router_level3_9 | Sending flit 3 to channel at output 11.
4 | network_0/router_level3_10 | Sending flit 4 to channel at output 10.
4 | network_0/router_level3_11 | Sending flit 5 to channel at output 13.
4 | network_0/router_level3_12 | Sending flit 7 to channel at output 9.
4 | network_0/router_level3_12 | Sending flit 6 to channel at output 15.
4 | network_0/router_level3_13 | Sending flit 8 to channel at output 9.
4 | network_0/router_level3_14 | Sending flit 9 to channel at output 10.
4 | network_0/router_level3_15 | Sending flit 10 to channel at output 12.
5 | network_0/network_0_fchan_20514 | Beginning channel traversal for flit 1 with delay 1.
5 | network_0/network_0_fchan_20539 | Beginning channel traversal for flit 2 with delay 1.
5 | network_0/network_0_fchan_20555 | Beginning channel traversal for flit 3 with delay 1.
5 | network_0/network_0_fchan_20562 | Beginning channel traversal for flit 4 with delay 1.
5 | network_0/network_0_fchan_20573 | Beginning channel traversal for flit 5 with delay 1.
5 | network_0/network_0_fchan_20577 | Beginning channel traversal for flit 7 with delay 1.
5 | network_0/network_0_fchan_20583 | Beginning channel traversal for flit 6 with delay 1.
5 | network_0/network_0_fchan_20585 | Beginning channel traversal for flit 8 with delay 1.
5 | network_0/network_0_fchan_20594 | Beginning channel traversal for flit 9 with delay 1.
5 | network_0/network_0_fchan_20604 | Beginning channel traversal for flit 10 with delay 1.
5 | network_0/network_0_fchan_20514 | Completed channel traversal for flit 1.
5 | network_0/network_0_fchan_20539 | Completed channel traversal for flit 2.
5 | network_0/network_0_fchan_20555 | Completed channel traversal for flit 3.
5 | network_0/network_0_fchan_20562 | Completed channel traversal for flit 4.
5 | network_0/network_0_fchan_20573 | Completed channel traversal for flit 5.
5 | network_0/network_0_fchan_20577 | Completed channel traversal for flit 7.
5 | network_0/network_0_fchan_20583 | Completed channel traversal for flit 6.
5 | network_0/network_0_fchan_20585 | Completed channel traversal for flit 8.
5 | network_0/network_0_fchan_20594 | Completed channel traversal for flit 9.
5 | network_0/network_0_fchan_20604 | Completed channel traversal for flit 10.
6 | network_0/router_level2_2 | Received flit 1 from channel at input 4.
6 | network_0/router_level2_3 | Received flit 2 from channel at input 7.
6 | network_0/router_level2_9 | Received flit 7 from channel at input 4.
6 | network_0/router_level2_9 | Received flit 8 from channel at input 5.
6 | network_0/router_level2_10 | Received flit 4 from channel at input 2.
6 | network_0/router_level2_10 | Received flit 9 from channel at input 6.
6 | network_0/router_level2_11 | Received flit 3 from channel at input 1.
6 | network_0/router_level2_12 | Received flit 10 from channel at input 7.
6 | network_0/router_level2_13 | Received flit 5 from channel at input 3.
6 | network_0/router_level2_15 | Received flit 6 from channel at input 4.
6 | network_0/router_level2_2 | Adding flit 1 to VC 0 at input 4 (state: idle, empty).
6 | network_0/router_level2_2 | Using precomputed lookahead routing information for VC 0 at input 4 (front: 1).
6 | network_0/router_level2_2/buf_4/vc_0 | Changing state from idle to vc_alloc.
6 | network_0/router_level2_2 | Beginning VC allocation for VC 0 at input 4 (front: 1).
6 | network_0/router_level2_2 |   Requesting VC 0 at output 8 (in_pri: 0, out_pri: 0).
6 | network_0/router_level2_2 |   Requesting VC 1 at output 8 (in_pri: 0, out_pri: 0).
6 | network_0/router_level2_2 |   Requesting VC 2 at output 8 (in_pri: 0, out_pri: 0).
6 | network_0/router_level2_2 |   Requesting VC 3 at output 8 (in_pri: 0, out_pri: 0).
6 | network_0/router_level2_2/vc_allocator | Input requests = [ 16 -> [ 32@0 33@0 34@0 35@0 ]  ], output requests = [ 32 -> [ 16@0 ]  33 -> [ 16@0 ]  34 -> [ 16@0 ]  35 -> [ 16@0 ]  ].
6 | network_0/router_level2_2/vc_allocator | Input grants = [ 16 -> 32  ], output grants = [ 32 -> 16  ].
6 | network_0/router_level2_2 | Assigning VC 0 at output 8 to VC 0 at input 4.
6 | network_0/router_level2_2 | Completed VC allocation for VC 0 at input 4 (front: 1).
6 | network_0/router_level2_2 |   Acquiring assigned VC 0 at output 8.
6 | network_0/router_level2_2/buf_4/vc_0 | Changing state from vc_alloc to active.
6 | network_0/router_level2_3 | Adding flit 2 to VC 0 at input 7 (state: idle, empty).
6 | network_0/router_level2_3 | Using precomputed lookahead routing information for VC 0 at input 7 (front: 2).
6 | network_0/router_level2_3/buf_7/vc_0 | Changing state from idle to vc_alloc.
6 | network_0/router_level2_3 | Beginning VC allocation for VC 0 at input 7 (front: 2).
6 | network_0/router_level2_3 |   Requesting VC 0 at output 14 (in_pri: 0, out_pri: 0).
6 | network_0/router_level2_3 |   Requesting VC 1 at output 14 (in_pri: 0, out_pri: 0).
6 | network_0/router_level2_3 |   Requesting VC 2 at output 14 (in_pri: 0, out_pri: 0).
6 | network_0/router_level2_3 |   Requesting VC 3 at output 14 (in_pri: 0, out_pri: 0).
6 | network_0/router_level2_3/vc_allocator | Input requests = [ 28 -> [ 56@0 57@0 58@0 59@0 ]  ], output requests = [ 56 -> [ 28@0 ]  57 -> [ 28@0 ]  58 -> [ 28@0 ]  59 -> [ 28@0 ]  ].
6 | network_0/router_level2_3/vc_allocator | Input grants = [ 28 -> 56  ], output grants = [ 56 -> 28  ].
6 | network_0/router_level2_3 | Assigning VC 0 at output 14 to VC 0 at input 7.
6 | network_0/router_level2_3 | Completed VC allocation for VC 0 at input 7 (front: 2).
6 | network_0/router_level2_3 |   Acquiring assigned VC 0 at output 14.
6 | network_0/router_level2_3/buf_7/vc_0 | Changing state from vc_alloc to active.
6 | network_0/router_level2_9 | Adding flit 7 to VC 0 at input 4 (state: idle, empty).
6 | network_0/router_level2_9 | Using precomputed lookahead routing information for VC 0 at input 4 (front: 7).
6 | network_0/router_level2_9/buf_4/vc_0 | Changing state from idle to vc_alloc.
6 | network_0/router_level2_9 | Adding flit 8 to VC 0 at input 5 (state: idle, empty).
6 | network_0/router_level2_9 | Using precomputed lookahead routing information for VC 0 at input 5 (front: 8).
6 | network_0/router_level2_9/buf_5/vc_0 | Changing state from idle to vc_alloc.
6 | network_0/router_level2_9 | Beginning VC allocation for VC 0 at input 4 (front: 7).
6 | network_0/router_level2_9 |   Requesting VC 0 at output 8 (in_pri: 0, out_pri: 0).
6 | network_0/router_level2_9 |   Requesting VC 1 at output 8 (in_pri: 0, out_pri: 0).
6 | network_0/router_level2_9 |   Requesting VC 2 at output 8 (in_pri: 0, out_pri: 0).
6 | network_0/router_level2_9 |   Requesting VC 3 at output 8 (in_pri: 0, out_pri: 0).
6 | network_0/router_level2_9 | Beginning VC allocation for VC 0 at input 5 (front: 8).
6 | network_0/router_level2_9 |   Requesting VC 0 at output 15 (in_pri: 0, out_pri: 0).
6 | network_0/router_level2_9 |   Requesting VC 1 at output 15 (in_pri: 0, out_pri: 0).
6 | network_0/router_level2_9 |   Requesting VC 2 at output 15 (in_pri: 0, out_pri: 0).
6 | network_0/router_level2_9 |   Requesting VC 3 at output 15 (in_pri: 0, out_pri: 0).
6 | network_0/router_level2_9/vc_allocator | Input requests = [ 16 -> [ 32@0 33@0 34@0 35@0 ]  20 -> [ 60@0 61@0 62@0 63@0 ]  ], output requests = [ 32 -> [ 16@0 ]  33 -> [ 16@0 ]  34 -> [ 16@0 ]  35 -> [ 16@0 ]  60 -> [ 20@0 ]  61 -> [ 20@0 ]  62 -> [ 20@0 ]  63 -> [ 20@0 ]  ].
6 | network_0/router_level2_9/vc_allocator | Input grants = [ 16 -> 32  20 -> 60  ], output grants = [ 32 -> 16  60 -> 20  ].
6 | network_0/router_level2_9 | Assigning VC 0 at output 8 to VC 0 at input 4.
6 | network_0/router_level2_9 | Assigning VC 0 at output 15 to VC 0 at input 5.
6 | network_0/router_level2_9 | Completed VC allocation for VC 0 at input 4 (front: 7).
6 | network_0/router_level2_9 |   Acquiring assigned VC 0 at output 8.
6 | network_0/router_level2_9/buf_4/vc_0 | Changing state from vc_alloc to active.
6 | network_0/router_level2_9 | Completed VC allocation for VC 0 at input 5 (front: 8).
6 | network_0/router_level2_9 |   Acquiring assigned VC 0 at output 15.
6 | network_0/router_level2_9/buf_5/vc_0 | Changing state from vc_alloc to active.
6 | network_0/router_level2_10 | Adding flit 4 to VC 0 at input 2 (state: idle, empty).
6 | network_0/router_level2_10 | Using precomputed lookahead routing information for VC 0 at input 2 (front: 4).
6 | network_0/router_level2_10/buf_2/vc_0 | Changing state from idle to vc_alloc.
6 | network_0/router_level2_10 | Adding flit 9 to VC 0 at input 6 (state: idle, empty).
6 | network_0/router_level2_10 | Using precomputed lookahead routing information for VC 0 at input 6 (front: 9).
6 | network_0/router_level2_10/buf_6/vc_0 | Changing state from idle to vc_alloc.
6 | network_0/router_level2_10 | Beginning VC allocation for VC 0 at input 2 (front: 4).
6 | network_0/router_level2_10 |   Requesting VC 0 at output 14 (in_pri: 0, out_pri: 0).
6 | network_0/router_level2_10 |   Requesting VC 1 at output 14 (in_pri: 0, out_pri: 0).
6 | network_0/router_level2_10 |   Requesting VC 2 at output 14 (in_pri: 0, out_pri: 0).
6 | network_0/router_level2_10 |   Requesting VC 3 at output 14 (in_pri: 0, out_pri: 0).
6 | network_0/router_level2_10 | Beginning VC allocation for VC 0 at input 6 (front: 9).
6 | network_0/router_level2_10 |   Requesting VC 0 at output 10 (in_pri: 0, out_pri: 0).
6 | network_0/router_level2_10 |   Requesting VC 1 at output 10 (in_pri: 0, out_pri: 0).
6 | network_0/router_level2_10 |   Requesting VC 2 at output 10 (in_pri: 0, out_pri: 0).
6 | network_0/router_level2_10 |   Requesting VC 3 at output 10 (in_pri: 0, out_pri: 0).
6 | network_0/router_level2_10/vc_allocator | Input requests = [ 8 -> [ 56@0 57@0 58@0 59@0 ]  24 -> [ 40@0 41@0 42@0 43@0 ]  ], output requests = [ 40 -> [ 24@0 ]  41 -> [ 24@0 ]  42 -> [ 24@0 ]  43 -> [ 24@0 ]  56 -> [ 8@0 ]  57 -> [ 8@0 ]  58 -> [ 8@0 ]  59 -> [ 8@0 ]  ].
6 | network_0/router_level2_10/vc_allocator | Input grants = [ 8 -> 56  24 -> 40  ], output grants = [ 40 -> 24  56 -> 8  ].
6 | network_0/router_level2_10 | Assigning VC 0 at output 14 to VC 0 at input 2.
6 | network_0/router_level2_10 | Assigning VC 0 at output 10 to VC 0 at input 6.
6 | network_0/router_level2_10 | Completed VC allocation for VC 0 at input 2 (front: 4).
6 | network_0/router_level2_10 |   Acquiring assigned VC 0 at output 14.
6 | network_0/router_level2_10/buf_2/vc_0 | Changing state from vc_alloc to active.
6 | network_0/router_level2_10 | Completed VC allocation for VC 0 at input 6 (front: 9).
6 | network_0/router_level2_10 |   Acquiring assigned VC 0 at output 10.
6 | network_0/router_level2_10/buf_6/vc_0 | Changing state from vc_alloc to active.
6 | network_0/router_level2_11 | Adding flit 3 to VC 0 at input 1 (state: idle, empty).
6 | network_0/router_level2_11 | Using precomputed lookahead routing information for VC 0 at input 1 (front: 3).
6 | network_0/router_level2_11/buf_1/vc_0 | Changing state from idle to vc_alloc.
6 | network_0/router_level2_11 | Beginning VC allocation for VC 0 at input 1 (front: 3).
6 | network_0/router_level2_11 |   Requesting VC 0 at output 9 (in_pri: 0, out_pri: 0).
6 | network_0/router_level2_11 |   Requesting VC 1 at output 9 (in_pri: 0, out_pri: 0).
6 | network_0/router_level2_11 |   Requesting VC 2 at output 9 (in_pri: 0, out_pri: 0).
6 | network_0/router_level2_11 |   Requesting VC 3 at output 9 (in_pri: 0, out_pri: 0).
6 | network_0/router_level2_11/vc_allocator | Input requests = [ 4 -> [ 36@0 37@0 38@0 39@0 ]  ], output requests = [ 36 -> [ 4@0 ]  37 -> [ 4@0 ]  38 -> [ 4@0 ]  39 -> [ 4@0 ]  ].
6 | network_0/router_level2_11/vc_allocator | Input grants = [ 4 -> 36  ], output grants = [ 36 -> 4  ].
6 | network_0/router_level2_11 | Assigning VC 0 at output 9 to VC 0 at input 1.
6 | network_0/router_level2_11 | Completed VC allocation for VC 0 at input 1 (front: 3).
6 | network_0/router_level2_11 |   Acquiring assigned VC 0 at output 9.
6 | network_0/router_level2_11/buf_1/vc_0 | Changing state from vc_alloc to active.
6 | network_0/router_level2_12 | Adding flit 10 to VC 0 at input 7 (state: idle, empty).
6 | network_0/router_level2_12 | Using precomputed lookahead routing information for VC 0 at input 7 (front: 10).
6 | network_0/router_level2_12/buf_7/vc_0 | Changing state from idle to vc_alloc.
6 | network_0/router_level2_12 | Beginning VC allocation for VC 0 at input 7 (front: 10).
6 | network_0/router_level2_12 |   Requesting VC 0 at output 8 (in_pri: 0, out_pri: 0).
6 | network_0/router_level2_12 |   Requesting VC 1 at output 8 (in_pri: 0, out_pri: 0).
6 | network_0/router_level2_12 |   Requesting VC 2 at output 8 (in_pri: 0, out_pri: 0).
6 | network_0/router_level2_12 |   Requesting VC 3 at output 8 (in_pri: 0, out_pri: 0).
6 | network_0/router_level2_12/vc_allocator | Input requests = [ 28 -> [ 32@0 33@0 34@0 35@0 ]  ], output requests = [ 32 -> [ 28@0 ]  33 -> [ 28@0 ]  34 -> [ 28@0 ]  35 -> [ 28@0 ]  ].
6 | network_0/router_level2_12/vc_allocator | Input grants = [ 28 -> 32  ], output grants = [ 32 -> 28  ].
6 | network_0/router_level2_12 | Assigning VC 0 at output 8 to VC 0 at input 7.
6 | network_0/router_level2_12 | Completed VC allocation for VC 0 at input 7 (front: 10).
6 | network_0/router_level2_12 |   Acquiring assigned VC 0 at output 8.
6 | network_0/router_level2_12/buf_7/vc_0 | Changing state from vc_alloc to active.
6 | network_0/router_level2_13 | Adding flit 5 to VC 0 at input 3 (state: idle, empty).
6 | network_0/router_level2_13 | Using precomputed lookahead routing information for VC 0 at input 3 (front: 5).
6 | network_0/router_level2_13/buf_3/vc_0 | Changing state from idle to vc_alloc.
6 | network_0/router_level2_13 | Beginning VC allocation for VC 0 at input 3 (front: 5).
6 | network_0/router_level2_13 |   Requesting VC 0 at output 10 (in_pri: 0, out_pri: 0).
6 | network_0/router_level2_13 |   Requesting VC 1 at output 10 (in_pri: 0, out_pri: 0).
6 | network_0/router_level2_13 |   Requesting VC 2 at output 10 (in_pri: 0, out_pri: 0).
6 | network_0/router_level2_13 |   Requesting VC 3 at output 10 (in_pri: 0, out_pri: 0).
6 | network_0/router_level2_13/vc_allocator | Input requests = [ 12 -> [ 40@0 41@0 42@0 43@0 ]  ], output requests = [ 40 -> [ 12@0 ]  41 -> [ 12@0 ]  42 -> [ 12@0 ]  43 -> [ 12@0 ]  ].
6 | network_0/router_level2_13/vc_allocator | Input grants = [ 12 -> 40  ], output grants = [ 40 -> 12  ].
6 | network_0/router_level2_13 | Assigning VC 0 at output 10 to VC 0 at input 3.
6 | network_0/router_level2_13 | Completed VC allocation for VC 0 at input 3 (front: 5).
6 | network_0/router_level2_13 |   Acquiring assigned VC 0 at output 10.
6 | network_0/router_level2_13/buf_3/vc_0 | Changing state from vc_alloc to active.
6 | network_0/router_level2_15 | Adding flit 6 to VC 0 at input 4 (state: idle, empty).
6 | network_0/router_level2_15 | Using precomputed lookahead routing information for VC 0 at input 4 (front: 6).
6 | network_0/router_level2_15/buf_4/vc_0 | Changing state from idle to vc_alloc.
6 | network_0/router_level2_15 | Beginning VC allocation for VC 0 at input 4 (front: 6).
6 | network_0/router_level2_15 |   Requesting VC 0 at output 14 (in_pri: 0, out_pri: 0).
6 | network_0/router_level2_15 |   Requesting VC 1 at output 14 (in_pri: 0, out_pri: 0).
6 | network_0/router_level2_15 |   Requesting VC 2 at output 14 (in_pri: 0, out_pri: 0).
6 | network_0/router_level2_15 |   Requesting VC 3 at output 14 (in_pri: 0, out_pri: 0).
6 | network_0/router_level2_15/vc_allocator | Input requests = [ 16 -> [ 56@0 57@0 58@0 59@0 ]  ], output requests = [ 56 -> [ 16@0 ]  57 -> [ 16@0 ]  58 -> [ 16@0 ]  59 -> [ 16@0 ]  ].
6 | network_0/router_level2_15/vc_allocator | Input grants = [ 16 -> 56  ], output grants = [ 56 -> 16  ].
6 | network_0/router_level2_15 | Assigning VC 0 at output 14 to VC 0 at input 4.
6 | network_0/router_level2_15 | Completed VC allocation for VC 0 at input 4 (front: 6).
6 | network_0/router_level2_15 |   Acquiring assigned VC 0 at output 14.
6 | network_0/router_level2_15/buf_4/vc_0 | Changing state from vc_alloc to active.
7 | network_0/router_level2_2 | Beginning switch allocation for VC 0 at input 4 (front: 1).
7 | network_0/router_level2_2 |   Requesting output 8.0 (non-spec, pri: 0).
7 | network_0/router_level2_2/sw_allocator | Input requests = [ 4 -> [ 8@0 ]  ], output requests = [ 8 -> [ 4@0 ]  ].
7 | network_0/router_level2_2/sw_allocator | Input grants = [ 4 -> 8  ], output grants = [ 8 -> 4  ].
7 | network_0/router_level2_2 | Assigning output 8.0 to VC 0 at input 4.0.
7 | network_0/router_level2_2 | Completed switch allocation for VC 0 at input 4 (front: 1).
7 | network_0/router_level2_2 |   Scheduling switch connection from input 4.0 to output 8.0.
7 | network_0/router_level2_2 | Updating lookahead routing information for flit 1.
7 | network_0/router_level2_3 | Beginning switch allocation for VC 0 at input 7 (front: 2).
7 | network_0/router_level2_3 |   Requesting output 14.0 (non-spec, pri: 0).
7 | network_0/router_level2_3/sw_allocator | Input requests = [ 7 -> [ 14@0 ]  ], output requests = [ 14 -> [ 7@0 ]  ].
7 | network_0/router_level2_3/sw_allocator | Input grants = [ 7 -> 14  ], output grants = [ 14 -> 7  ].
7 | network_0/router_level2_3 | Assigning output 14.0 to VC 0 at input 7.0.
7 | network_0/router_level2_3 | Completed switch allocation for VC 0 at input 7 (front: 2).
7 | network_0/router_level2_3 |   Scheduling switch connection from input 7.0 to output 14.0.
7 | network_0/router_level2_3 | Updating lookahead routing information for flit 2.
7 | network_0/router_level2_9 | Beginning switch allocation for VC 0 at input 4 (front: 7).
7 | network_0/router_level2_9 |   Requesting output 8.0 (non-spec, pri: 0).
7 | network_0/router_level2_9 | Beginning switch allocation for VC 0 at input 5 (front: 8).
7 | network_0/router_level2_9 |   Requesting output 15.0 (non-spec, pri: 0).
7 | network_0/router_level2_9/sw_allocator | Input requests = [ 4 -> [ 8@0 ]  5 -> [ 15@0 ]  ], output requests = [ 8 -> [ 4@0 ]  15 -> [ 5@0 ]  ].
7 | network_0/router_level2_9/sw_allocator | Input grants = [ 4 -> 8  5 -> 15  ], output grants = [ 8 -> 4  15 -> 5  ].
7 | network_0/router_level2_9 | Assigning output 8.0 to VC 0 at input 4.0.
7 | network_0/router_level2_9 | Assigning output 15.0 to VC 0 at input 5.0.
7 | network_0/router_level2_9 | Completed switch allocation for VC 0 at input 4 (front: 7).
7 | network_0/router_level2_9 |   Scheduling switch connection from input 4.0 to output 8.0.
7 | network_0/router_level2_9 | Updating lookahead routing information for flit 7.
7 | network_0/router_level2_9 | Completed switch allocation for VC 0 at input 5 (front: 8).
7 | network_0/router_level2_9 |   Scheduling switch connection from input 5.0 to output 15.0.
7 | network_0/router_level2_9 | Updating lookahead routing information for flit 8.
7 | network_0/router_level2_10 | Beginning switch allocation for VC 0 at input 2 (front: 4).
7 | network_0/router_level2_10 |   Requesting output 14.0 (non-spec, pri: 0).
7 | network_0/router_level2_10 | Beginning switch allocation for VC 0 at input 6 (front: 9).
7 | network_0/router_level2_10 |   Requesting output 10.0 (non-spec, pri: 0).
7 | network_0/router_level2_10/sw_allocator | Input requests = [ 2 -> [ 14@0 ]  6 -> [ 10@0 ]  ], output requests = [ 10 -> [ 6@0 ]  14 -> [ 2@0 ]  ].
7 | network_0/router_level2_10/sw_allocator | Input grants = [ 2 -> 14  6 -> 10  ], output grants = [ 10 -> 6  14 -> 2  ].
7 | network_0/router_level2_10 | Assigning output 14.0 to VC 0 at input 2.0.
7 | network_0/router_level2_10 | Assigning output 10.0 to VC 0 at input 6.0.
7 | network_0/router_level2_10 | Completed switch allocation for VC 0 at input 2 (front: 4).
7 | network_0/router_level2_10 |   Scheduling switch connection from input 2.0 to output 14.0.
7 | network_0/router_level2_10 | Updating lookahead routing information for flit 4.
7 | network_0/router_level2_10 | Completed switch allocation for VC 0 at input 6 (front: 9).
7 | network_0/router_level2_10 |   Scheduling switch connection from input 6.0 to output 10.0.
7 | network_0/router_level2_10 | Updating lookahead routing information for flit 9.
7 | network_0/router_level2_11 | Beginning switch allocation for VC 0 at input 1 (front: 3).
7 | network_0/router_level2_11 |   Requesting output 9.0 (non-spec, pri: 0).
7 | network_0/router_level2_11/sw_allocator | Input requests = [ 1 -> [ 9@0 ]  ], output requests = [ 9 -> [ 1@0 ]  ].
7 | network_0/router_level2_11/sw_allocator | Input grants = [ 1 -> 9  ], output grants = [ 9 -> 1  ].
7 | network_0/router_level2_11 | Assigning output 9.0 to VC 0 at input 1.0.
7 | network_0/router_level2_11 | Completed switch allocation for VC 0 at input 1 (front: 3).
7 | network_0/router_level2_11 |   Scheduling switch connection from input 1.0 to output 9.0.
7 | network_0/router_level2_11 | Updating lookahead routing information for flit 3.
7 | network_0/router_level2_12 | Beginning switch allocation for VC 0 at input 7 (front: 10).
7 | network_0/router_level2_12 |   Requesting output 8.0 (non-spec, pri: 0).
7 | network_0/router_level2_12/sw_allocator | Input requests = [ 7 -> [ 8@0 ]  ], output requests = [ 8 -> [ 7@0 ]  ].
7 | network_0/router_level2_12/sw_allocator | Input grants = [ 7 -> 8  ], output grants = [ 8 -> 7  ].
7 | network_0/router_level2_12 | Assigning output 8.0 to VC 0 at input 7.0.
7 | network_0/router_level2_12 | Completed switch allocation for VC 0 at input 7 (front: 10).
7 | network_0/router_level2_12 |   Scheduling switch connection from input 7.0 to output 8.0.
7 | network_0/router_level2_12 | Updating lookahead routing information for flit 10.
7 | network_0/router_level2_13 | Beginning switch allocation for VC 0 at input 3 (front: 5).
7 | network_0/router_level2_13 |   Requesting output 10.0 (non-spec, pri: 0).
7 | network_0/router_level2_13/sw_allocator | Input requests = [ 3 -> [ 10@0 ]  ], output requests = [ 10 -> [ 3@0 ]  ].
7 | network_0/router_level2_13/sw_allocator | Input grants = [ 3 -> 10  ], output grants = [ 10 -> 3  ].
7 | network_0/router_level2_13 | Assigning output 10.0 to VC 0 at input 3.0.
7 | network_0/router_level2_13 | Completed switch allocation for VC 0 at input 3 (front: 5).
7 | network_0/router_level2_13 |   Scheduling switch connection from input 3.0 to output 10.0.
7 | network_0/router_level2_13 | Updating lookahead routing information for flit 5.
7 | network_0/router_level2_15 | Beginning switch allocation for VC 0 at input 4 (front: 6).
7 | network_0/router_level2_15 |   Requesting output 14.0 (non-spec, pri: 0).
7 | network_0/router_level2_15/sw_allocator | Input requests = [ 4 -> [ 14@0 ]  ], output requests = [ 14 -> [ 4@0 ]  ].
7 | network_0/router_level2_15/sw_allocator | Input grants = [ 4 -> 14  ], output grants = [ 14 -> 4  ].
7 | network_0/router_level2_15 | Assigning output 14.0 to VC 0 at input 4.0.
7 | network_0/router_level2_15 | Completed switch allocation for VC 0 at input 4 (front: 6).
7 | network_0/router_level2_15 |   Scheduling switch connection from input 4.0 to output 14.0.
7 | network_0/router_level2_15 | Updating lookahead routing information for flit 6.
8 | network_0/router_level2_2 | Beginning crossbar traversal for flit 1 from input 4.0 to output 8.0.
8 | network_0/router_level2_2 | Completed crossbar traversal for flit 1 from input 4.0 to output 8.0.
8 | network_0/router_level2_2 | Buffering flit 1 at output 8.
8 | network_0/router_level2_3 | Beginning crossbar traversal for flit 2 from input 7.0 to output 14.0.
8 | network_0/router_level2_3 | Completed crossbar traversal for flit 2 from input 7.0 to output 14.0.
8 | network_0/router_level2_3 | Buffering flit 2 at output 14.
8 | network_0/router_level2_9 | Beginning crossbar traversal for flit 7 from input 4.0 to output 8.0.
8 | network_0/router_level2_9 | Beginning crossbar traversal for flit 8 from input 5.0 to output 15.0.
8 | network_0/router_level2_9 | Completed crossbar traversal for flit 7 from input 4.0 to output 8.0.
8 | network_0/router_level2_9 | Buffering flit 7 at output 8.
8 | network_0/router_level2_9 | Completed crossbar traversal for flit 8 from input 5.0 to output 15.0.
8 | network_0/router_level2_9 | Buffering flit 8 at output 15.
8 | network_0/router_level2_10 | Beginning crossbar traversal for flit 4 from input 2.0 to output 14.0.
8 | network_0/router_level2_10 | Beginning crossbar traversal for flit 9 from input 6.0 to output 10.0.
8 | network_0/router_level2_10 | Completed crossbar traversal for flit 4 from input 2.0 to output 14.0.
8 | network_0/router_level2_10 | Buffering flit 4 at output 14.
8 | network_0/router_level2_10 | Completed crossbar traversal for flit 9 from input 6.0 to output 10.0.
8 | network_0/router_level2_10 | Buffering flit 9 at output 10.
8 | network_0/router_level2_11 | Beginning crossbar traversal for flit 3 from input 1.0 to output 9.0.
8 | network_0/router_level2_11 | Completed crossbar traversal for flit 3 from input 1.0 to output 9.0.
8 | network_0/router_level2_11 | Buffering flit 3 at output 9.
8 | network_0/router_level2_12 | Beginning crossbar traversal for flit 10 from input 7.0 to output 8.0.
8 | network_0/router_level2_12 | Completed crossbar traversal for flit 10 from input 7.0 to output 8.0.
8 | network_0/router_level2_12 | Buffering flit 10 at output 8.
8 | network_0/router_level2_13 | Beginning crossbar traversal for flit 5 from input 3.0 to output 10.0.
8 | network_0/router_level2_13 | Completed crossbar traversal for flit 5 from input 3.0 to output 10.0.
8 | network_0/router_level2_13 | Buffering flit 5 at output 10.
8 | network_0/router_level2_15 | Beginning crossbar traversal for flit 6 from input 4.0 to output 14.0.
8 | network_0/router_level2_15 | Completed crossbar traversal for flit 6 from input 4.0 to output 14.0.
8 | network_0/router_level2_15 | Buffering flit 6 at output 14.
8 | network_0/router_level2_2 | Sending flit 1 to channel at output 8.
8 | network_0/router_level2_3 | Sending flit 2 to channel at output 14.
8 | network_0/router_level2_9 | Sending flit 7 to channel at output 8.
8 | network_0/router_level2_9 | Sending flit 8 to channel at output 15.
8 | network_0/router_level2_10 | Sending flit 9 to channel at output 10.
8 | network_0/router_level2_10 | Sending flit 4 to channel at output 14.
8 | network_0/router_level2_11 | Sending flit 3 to channel at output 9.
8 | network_0/router_level2_12 | Sending flit 10 to channel at output 8.
8 | network_0/router_level2_13 | Sending flit 5 to channel at output 10.
8 | network_0/router_level2_15 | Sending flit 6 to channel at output 14.
9 | network_0/network_0_fchan_12304 | Beginning channel traversal for flit 1 with delay 1.
9 | network_0/network_0_fchan_12318 | Beginning channel traversal for flit 2 with delay 1.
9 | network_0/network_0_fchan_12360 | Beginning channel traversal for flit 7 with delay 1.
9 | network_0/network_0_fchan_12367 | Beginning channel traversal for flit 8 with delay 1.
9 | network_0/network_0_fchan_12370 | Beginning channel traversal for flit 9 with delay 1.
9 | network_0/network_0_fchan_12374 | Beginning channel traversal for flit 4 with delay 1.
9 | network_0/network_0_fchan_12377 | Beginning channel traversal for flit 3 with delay 1.
9 | network_0/network_0_fchan_12384 | Beginning channel traversal for flit 10 with delay 1.
9 | network_0/network_0_fchan_12394 | Beginning channel traversal for flit 5 with delay 1.
9 | network_0/network_0_fchan_12414 | Beginning channel traversal for flit 6 with delay 1.
9 | network_0/network_0_fchan_12304 | Completed channel traversal for flit 1.
9 | network_0/network_0_fchan_12318 | Completed channel traversal for flit 2.
9 | network_0/network_0_fchan_12360 | Completed channel traversal for flit 7.
9 | network_0/network_0_fchan_12367 | Completed channel traversal for flit 8.
9 | network_0/network_0_fchan_12370 | Completed channel traversal for flit 9.
9 | network_0/network_0_fchan_12374 | Completed channel traversal for flit 4.
9 | network_0/network_0_fchan_12377 | Completed channel traversal for flit 3.
9 | network_0/network_0_fchan_12384 | Completed channel traversal for flit 10.
9 | network_0/network_0_fchan_12394 | Completed channel traversal for flit 5.
9 | network_0/network_0_fchan_12414 | Completed channel traversal for flit 6.
10 | network_0/router_level1_1 | Received flit 7 from channel at input 1.
10 | network_0/router_level1_2 | Received flit 1 from channel at input 0.
10 | network_0/router_level1_4 | Received flit 10 from channel at input 1.
10 | network_0/router_level1_11 | Received flit 3 from channel at input 1.
10 | network_0/router_level1_18 | Received flit 9 from channel at input 1.
10 | network_0/router_level1_21 | Received flit 5 from channel at input 1.
10 | network_0/router_level1_50 | Received flit 4 from channel at input 1.
10 | network_0/router_level1_51 | Received flit 2 from channel at input 0.
10 | network_0/router_level1_55 | Received flit 6 from channel at input 1.
10 | network_0/router_level1_57 | Received flit 8 from channel at input 1.
10 | network_0/router_level1_1 | Adding flit 7 to VC 0 at input 1 (state: idle, empty).
10 | network_0/router_level1_1 | Using precomputed lookahead routing information for VC 0 at input 1 (front: 7).
10 | network_0/router_level1_1/buf_1/vc_0 | Changing state from idle to vc_alloc.
10 | network_0/router_level1_1 | Beginning VC allocation for VC 0 at input 1 (front: 7).
10 | network_0/router_level1_1 |   Requesting VC 0 at output 13 (in_pri: 0, out_pri: 0).
10 | network_0/router_level1_1 |   Requesting VC 1 at output 13 (in_pri: 0, out_pri: 0).
10 | network_0/router_level1_1 |   Requesting VC 2 at output 13 (in_pri: 0, out_pri: 0).
10 | network_0/router_level1_1 |   Requesting VC 3 at output 13 (in_pri: 0, out_pri: 0).
10 | network_0/router_level1_1/vc_allocator | Input requests = [ 4 -> [ 52@0 53@0 54@0 55@0 ]  16 -> [ 44@0 45@0 46@0 47@0 ]  ], output requests = [ 44 -> [ 16@0 ]  45 -> [ 16@0 ]  46 -> [ 16@0 ]  47 -> [ 16@0 ]  52 -> [ 4@0 ]  53 -> [ 4@0 ]  54 -> [ 4@0 ]  55 -> [ 4@0 ]  ].
10 | network_0/router_level1_1/vc_allocator | Input grants = [ 4 -> 52  16 -> 44  ], output grants = [ 44 -> 16  52 -> 4  ].
10 | network_0/router_level1_1 | Assigning VC 0 at output 13 to VC 0 at input 1.
10 | network_0/router_level1_1 | Completed VC allocation for VC 0 at input 1 (front: 7).
10 | network_0/router_level1_1 |   Acquiring assigned VC 0 at output 13.
10 | network_0/router_level1_1/buf_1/vc_0 | Changing state from vc_alloc to active.
10 | network_0/router_level1_2 | Adding flit 1 to VC 0 at input 0 (state: idle, empty).
10 | network_0/router_level1_2 | Using precomputed lookahead routing information for VC 0 at input 0 (front: 1).
10 | network_0/router_level1_2/buf_0/vc_0 | Changing state from idle to vc_alloc.
10 | network_0/router_level1_2 | Beginning VC allocation for VC 0 at input 0 (front: 1).
10 | network_0/router_level1_2 |   Requesting VC 0 at output 9 (in_pri: 0, out_pri: 0).
10 | network_0/router_level1_2 |   Requesting VC 1 at output 9 (in_pri: 0, out_pri: 0).
10 | network_0/router_level1_2 |   Requesting VC 2 at output 9 (in_pri: 0, out_pri: 0).
10 | network_0/router_level1_2 |   Requesting VC 3 at output 9 (in_pri: 0, out_pri: 0).
10 | network_0/router_level1_2/vc_allocator | Input requests = [ 0 -> [ 36@0 37@0 38@0 39@0 ]  8 -> [ 60@0 61@0 62@0 63@0 ]  20 -> [ 56@0 57@0 58@0 59@0 ]  ], output requests = [ 36 -> [ 0@0 ]  37 -> [ 0@0 ]  38 -> [ 0@0 ]  39 -> [ 0@0 ]  56 -> [ 20@0 ]  57 -> [ 20@0 ]  58 -> [ 20@0 ]  59 -> [ 20@0 ]  60 -> [ 8@0 ]  61 -> [ 8@0 ]  62 -> [ 8@0 ]  63 -> [ 8@0 ]  ].
10 | network_0/router_level1_2/vc_allocator | Input grants = [ 0 -> 36  8 -> 60  20 -> 56  ], output grants = [ 36 -> 0  56 -> 20  60 -> 8  ].
10 | network_0/router_level1_2 | Assigning VC 0 at output 9 to VC 0 at input 0.
10 | network_0/router_level1_2 | Completed VC allocation for VC 0 at input 0 (front: 1).
10 | network_0/router_level1_2 |   Acquiring assigned VC 0 at output 9.
10 | network_0/router_level1_2/buf_0/vc_0 | Changing state from vc_alloc to active.
10 | network_0/router_level1_4 | Adding flit 10 to VC 0 at input 1 (state: idle, empty).
10 | network_0/router_level1_4 | Using precomputed lookahead routing information for VC 0 at input 1 (front: 10).
10 | network_0/router_level1_4/buf_1/vc_0 | Changing state from idle to vc_alloc.
10 | network_0/router_level1_4 | Beginning VC allocation for VC 0 at input 1 (front: 10).
10 | network_0/router_level1_4 |   Requesting VC 0 at output 13 (in_pri: 0, out_pri: 0).
10 | network_0/router_level1_4 |   Requesting VC 1 at output 13 (in_pri: 0, out_pri: 0).
10 | network_0/router_level1_4 |   Requesting VC 2 at output 13 (in_pri: 0, out_pri: 0).
10 | network_0/router_level1_4 |   Requesting VC 3 at output 13 (in_pri: 0, out_pri: 0).
10 | network_0/router_level1_4/vc_allocator | Input requests = [ 4 -> [ 52@0 53@0 54@0 55@0 ]  ], output requests = [ 52 -> [ 4@0 ]  53 -> [ 4@0 ]  54 -> [ 4@0 ]  55 -> [ 4@0 ]  ].
10 | network_0/router_level1_4/vc_allocator | Input grants = [ 4 -> 52  ], output grants = [ 52 -> 4  ].
10 | network_0/router_level1_4 | Assigning VC 0 at output 13 to VC 0 at input 1.
10 | network_0/router_level1_4 | Completed VC allocation for VC 0 at input 1 (front: 10).
10 | network_0/router_level1_4 |   Acquiring assigned VC 0 at output 13.
10 | network_0/router_level1_4/buf_1/vc_0 | Changing state from vc_alloc to active.
10 | network_0/router_level1_11 | Adding flit 3 to VC 0 at input 1 (state: idle, empty).
10 | network_0/router_level1_11 | Using precomputed lookahead routing information for VC 0 at input 1 (front: 3).
10 | network_0/router_level1_11/buf_1/vc_0 | Changing state from idle to vc_alloc.
10 | network_0/router_level1_11 | Beginning VC allocation for VC 0 at input 1 (front: 3).
10 | network_0/router_level1_11 |   Requesting VC 0 at output 12 (in_pri: 0, out_pri: 0).
10 | network_0/router_level1_11 |   Requesting VC 1 at output 12 (in_pri: 0, out_pri: 0).
10 | network_0/router_level1_11 |   Requesting VC 2 at output 12 (in_pri: 0, out_pri: 0).
10 | network_0/router_level1_11 |   Requesting VC 3 at output 12 (in_pri: 0, out_pri: 0).
10 | network_0/router_level1_11/vc_allocator | Input requests = [ 4 -> [ 48@0 49@0 50@0 51@0 ]  16 -> [ 52@0 53@0 54@0 55@0 ]  ], output requests = [ 48 -> [ 4@0 ]  49 -> [ 4@0 ]  50 -> [ 4@0 ]  51 -> [ 4@0 ]  52 -> [ 16@0 ]  53 -> [ 16@0 ]  54 -> [ 16@0 ]  55 -> [ 16@0 ]  ].
10 | network_0/router_level1_11/vc_allocator | Input grants = [ 4 -> 48  16 -> 52  ], output grants = [ 48 -> 4  52 -> 16  ].
10 | network_0/router_level1_11 | Assigning VC 0 at output 12 to VC 0 at input 1.
10 | network_0/router_level1_11 | Completed VC allocation for VC 0 at input 1 (front: 3).
10 | network_0/router_level1_11 |   Acquiring assigned VC 0 at output 12.
10 | network_0/router_level1_11/buf_1/vc_0 | Changing state from vc_alloc to active.
10 | network_0/router_level1_18 | Adding flit 9 to VC 0 at input 1 (state: idle, empty).
10 | network_0/router_level1_18 | Using precomputed lookahead routing information for VC 0 at input 1 (front: 9).
10 | network_0/router_level1_18/buf_1/vc_0 | Changing state from idle to vc_alloc.
10 | network_0/router_level1_18 | Beginning VC allocation for VC 0 at input 1 (front: 9).
10 | network_0/router_level1_18 |   Requesting VC 0 at output 7 (in_pri: 0, out_pri: 0).
10 | network_0/router_level1_18 |   Requesting VC 1 at output 7 (in_pri: 0, out_pri: 0).
10 | network_0/router_level1_18 |   Requesting VC 2 at output 7 (in_pri: 0, out_pri: 0).
10 | network_0/router_level1_18 |   Requesting VC 3 at output 7 (in_pri: 0, out_pri: 0).
10 | network_0/router_level1_18/vc_allocator | Input requests = [ 4 -> [ 28@0 29@0 30@0 31@0 ]  ], output requests = [ 28 -> [ 4@0 ]  29 -> [ 4@0 ]  30 -> [ 4@0 ]  31 -> [ 4@0 ]  ].
10 | network_0/router_level1_18/vc_allocator | Input grants = [ 4 -> 28  ], output grants = [ 28 -> 4  ].
10 | network_0/router_level1_18 | Assigning VC 0 at output 7 to VC 0 at input 1.
10 | network_0/router_level1_18 | Completed VC allocation for VC 0 at input 1 (front: 9).
10 | network_0/router_level1_18 |   Acquiring assigned VC 0 at output 7.
10 | network_0/router_level1_18/buf_1/vc_0 | Changing state from vc_alloc to active.
10 | network_0/router_level1_21 | Adding flit 5 to VC 0 at input 1 (state: idle, empty).
10 | network_0/router_level1_21 | Using precomputed lookahead routing information for VC 0 at input 1 (front: 5).
10 | network_0/router_level1_21/buf_1/vc_0 | Changing state from idle to vc_alloc.
10 | network_0/router_level1_21 | Beginning VC allocation for VC 0 at input 1 (front: 5).
10 | network_0/router_level1_21 |   Requesting VC 0 at output 10 (in_pri: 0, out_pri: 0).
10 | network_0/router_level1_21 |   Requesting VC 1 at output 10 (in_pri: 0, out_pri: 0).
10 | network_0/router_level1_21 |   Requesting VC 2 at output 10 (in_pri: 0, out_pri: 0).
10 | network_0/router_level1_21 |   Requesting VC 3 at output 10 (in_pri: 0, out_pri: 0).
10 | network_0/router_level1_21/vc_allocator | Input requests = [ 4 -> [ 40@0 41@0 42@0 43@0 ]  16 -> [ 48@0 49@0 50@0 51@0 ]  ], output requests = [ 40 -> [ 4@0 ]  41 -> [ 4@0 ]  42 -> [ 4@0 ]  43 -> [ 4@0 ]  48 -> [ 16@0 ]  49 -> [ 16@0 ]  50 -> [ 16@0 ]  51 -> [ 16@0 ]  ].
10 | network_0/router_level1_21/vc_allocator | Input grants = [ 4 -> 40  16 -> 48  ], output grants = [ 40 -> 4  48 -> 16  ].
10 | network_0/router_level1_21 | Assigning VC 0 at output 10 to VC 0 at input 1.
10 | network_0/router_level1_21 | Completed VC allocation for VC 0 at input 1 (front: 5).
10 | network_0/router_level1_21 |   Acquiring assigned VC 0 at output 10.
10 | network_0/router_level1_21/buf_1/vc_0 | Changing state from vc_alloc to active.
10 | network_0/router_level1_50 | Adding flit 4 to VC 0 at input 1 (state: idle, empty).
10 | network_0/router_level1_50 | Using precomputed lookahead routing information for VC 0 at input 1 (front: 4).
10 | network_0/router_level1_50/buf_1/vc_0 | Changing state from idle to vc_alloc.
10 | network_0/router_level1_50 | Beginning VC allocation for VC 0 at input 1 (front: 4).
10 | network_0/router_level1_50 |   Requesting VC 0 at output 13 (in_pri: 0, out_pri: 0).
10 | network_0/router_level1_50 |   Requesting VC 1 at output 13 (in_pri: 0, out_pri: 0).
10 | network_0/router_level1_50 |   Requesting VC 2 at output 13 (in_pri: 0, out_pri: 0).
10 | network_0/router_level1_50 |   Requesting VC 3 at output 13 (in_pri: 0, out_pri: 0).
10 | network_0/router_level1_50/vc_allocator | Input requests = [ 4 -> [ 52@0 53@0 54@0 55@0 ]  ], output requests = [ 52 -> [ 4@0 ]  53 -> [ 4@0 ]  54 -> [ 4@0 ]  55 -> [ 4@0 ]  ].
10 | network_0/router_level1_50/vc_allocator | Input grants = [ 4 -> 52  ], output grants = [ 52 -> 4  ].
10 | network_0/router_level1_50 | Assigning VC 0 at output 13 to VC 0 at input 1.
10 | network_0/router_level1_50 | Completed VC allocation for VC 0 at input 1 (front: 4).
10 | network_0/router_level1_50 |   Acquiring assigned VC 0 at output 13.
10 | network_0/router_level1_50/buf_1/vc_0 | Changing state from vc_alloc to active.
10 | network_0/router_level1_51 | Adding flit 2 to VC 0 at input 0 (state: idle, empty).
10 | network_0/router_level1_51 | Using precomputed lookahead routing information for VC 0 at input 0 (front: 2).
10 | network_0/router_level1_51/buf_0/vc_0 | Changing state from idle to vc_alloc.
10 | network_0/router_level1_51 | Beginning VC allocation for VC 0 at input 0 (front: 2).
10 | network_0/router_level1_51 |   Requesting VC 0 at output 15 (in_pri: 0, out_pri: 0).
10 | network_0/router_level1_51 |   Requesting VC 1 at output 15 (in_pri: 0, out_pri: 0).
10 | network_0/router_level1_51 |   Requesting VC 2 at output 15 (in_pri: 0, out_pri: 0).
10 | network_0/router_level1_51 |   Requesting VC 3 at output 15 (in_pri: 0, out_pri: 0).
10 | network_0/router_level1_51/vc_allocator | Input requests = [ 0 -> [ 60@0 61@0 62@0 63@0 ]  ], output requests = [ 60 -> [ 0@0 ]  61 -> [ 0@0 ]  62 -> [ 0@0 ]  63 -> [ 0@0 ]  ].
10 | network_0/router_level1_51/vc_allocator | Input grants = [ 0 -> 60  ], output grants = [ 60 -> 0  ].
10 | network_0/router_level1_51 | Assigning VC 0 at output 15 to VC 0 at input 0.
10 | network_0/router_level1_51 | Completed VC allocation for VC 0 at input 0 (front: 2).
10 | network_0/router_level1_51 |   Acquiring assigned VC 0 at output 15.
10 | network_0/router_level1_51/buf_0/vc_0 | Changing state from vc_alloc to active.
10 | network_0/router_level1_55 | Adding flit 6 to VC 0 at input 1 (state: idle, empty).
10 | network_0/router_level1_55 | Using precomputed lookahead routing information for VC 0 at input 1 (front: 6).
10 | network_0/router_level1_55/buf_1/vc_0 | Changing state from idle to vc_alloc.
10 | network_0/router_level1_55 | Beginning VC allocation for VC 0 at input 1 (front: 6).
10 | network_0/router_level1_55 |   Requesting VC 0 at output 9 (in_pri: 0, out_pri: 0).
10 | network_0/router_level1_55 |   Requesting VC 1 at output 9 (in_pri: 0, out_pri: 0).
10 | network_0/router_level1_55 |   Requesting VC 2 at output 9 (in_pri: 0, out_pri: 0).
10 | network_0/router_level1_55 |   Requesting VC 3 at output 9 (in_pri: 0, out_pri: 0).
10 | network_0/router_level1_55/vc_allocator | Input requests = [ 4 -> [ 36@0 37@0 38@0 39@0 ]  20 -> [ 32@0 33@0 34@0 35@0 ]  ], output requests = [ 32 -> [ 20@0 ]  33 -> [ 20@0 ]  34 -> [ 20@0 ]  35 -> [ 20@0 ]  36 -> [ 4@0 ]  37 -> [ 4@0 ]  38 -> [ 4@0 ]  39 -> [ 4@0 ]  ].
10 | network_0/router_level1_55/vc_allocator | Input grants = [ 4 -> 36  20 -> 32  ], output grants = [ 32 -> 20  36 -> 4  ].
10 | network_0/router_level1_55 | Assigning VC 0 at output 9 to VC 0 at input 1.
10 | network_0/router_level1_55 | Completed VC allocation for VC 0 at input 1 (front: 6).
10 | network_0/router_level1_55 |   Acquiring assigned VC 0 at output 9.
10 | network_0/router_level1_55/buf_1/vc_0 | Changing state from vc_alloc to active.
10 | network_0/router_level1_57 | Adding flit 8 to VC 0 at input 1 (state: idle, empty).
10 | network_0/router_level1_57 | Using precomputed lookahead routing information for VC 0 at input 1 (front: 8).
10 | network_0/router_level1_57/buf_1/vc_0 | Changing state from idle to vc_alloc.
10 | network_0/router_level1_57 | Beginning VC allocation for VC 0 at input 1 (front: 8).
10 | network_0/router_level1_57 |   Requesting VC 0 at output 15 (in_pri: 0, out_pri: 0).
10 | network_0/router_level1_57 |   Requesting VC 1 at output 15 (in_pri: 0, out_pri: 0).
10 | network_0/router_level1_57 |   Requesting VC 2 at output 15 (in_pri: 0, out_pri: 0).
10 | network_0/router_level1_57 |   Requesting VC 3 at output 15 (in_pri: 0, out_pri: 0).
10 | network_0/router_level1_57/vc_allocator | Input requests = [ 4 -> [ 60@0 61@0 62@0 63@0 ]  ], output requests = [ 60 -> [ 4@0 ]  61 -> [ 4@0 ]  62 -> [ 4@0 ]  63 -> [ 4@0 ]  ].
10 | network_0/router_level1_57/vc_allocator | Input grants = [ 4 -> 60  ], output grants = [ 60 -> 4  ].
10 | network_0/router_level1_57 | Assigning VC 0 at output 15 to VC 0 at input 1.
10 | network_0/router_level1_57 | Completed VC allocation for VC 0 at input 1 (front: 8).
10 | network_0/router_level1_57 |   Acquiring assigned VC 0 at output 15.
10 | network_0/router_level1_57/buf_1/vc_0 | Changing state from vc_alloc to active.
11 | network_0/router_level1_1 | Beginning switch allocation for VC 0 at input 1 (front: 7).
11 | network_0/router_level1_1 |   Requesting output 13.0 (non-spec, pri: 0).
11 | network_0/router_level1_1/sw_allocator | Input requests = [ 1 -> [ 13@0 ]  4 -> [ 11@0 ]  ], output requests = [ 11 -> [ 4@0 ]  13 -> [ 1@0 ]  ].
11 | network_0/router_level1_1/sw_allocator | Input grants = [ 1 -> 13  4 -> 11  ], output grants = [ 11 -> 4  13 -> 1  ].
11 | network_0/router_level1_1 | Assigning output 13.0 to VC 0 at input 1.0.
11 | network_0/router_level1_1 | Completed switch allocation for VC 0 at input 1 (front: 7).
11 | network_0/router_level1_1 |   Scheduling switch connection from input 1.0 to output 13.0.
11 | network_0/router_level1_1 | Updating lookahead routing information for flit 7.
11 | network_0/router_level1_2 | Beginning switch allocation for VC 0 at input 0 (front: 1).
11 | network_0/router_level1_2 |   Requesting output 9.0 (non-spec, pri: 0).
11 | network_0/router_level1_2/sw_allocator | Input requests = [ 0 -> [ 9@0 ]  2 -> [ 15@0 ]  5 -> [ 14@0 ]  ], output requests = [ 9 -> [ 0@0 ]  14 -> [ 5@0 ]  15 -> [ 2@0 ]  ].
11 | network_0/router_level1_2/sw_allocator | Input grants = [ 0 -> 9  2 -> 15  5 -> 14  ], output grants = [ 9 -> 0  14 -> 5  15 -> 2  ].
11 | network_0/router_level1_2 | Assigning output 9.0 to VC 0 at input 0.0.
11 | network_0/router_level1_2 | Completed switch allocation for VC 0 at input 0 (front: 1).
11 | network_0/router_level1_2 |   Scheduling switch connection from input 0.0 to output 9.0.
11 | network_0/router_level1_2 | Updating lookahead routing information for flit 1.
11 | network_0/router_level1_4 | Beginning switch allocation for VC 0 at input 1 (front: 10).
11 | network_0/router_level1_4 |   Requesting output 13.0 (non-spec, pri: 0).
11 | network_0/router_level1_4/sw_allocator | Input requests = [ 1 -> [ 13@0 ]  ], output requests = [ 13 -> [ 1@0 ]  ].
11 | network_0/router_level1_4/sw_allocator | Input grants = [ 1 -> 13  ], output grants = [ 13 -> 1  ].
11 | network_0/router_level1_4 | Assigning output 13.0 to VC 0 at input 1.0.
11 | network_0/router_level1_4 | Completed switch allocation for VC 0 at input 1 (front: 10).
11 | network_0/router_level1_4 |   Scheduling switch connection from input 1.0 to output 13.0.
11 | network_0/router_level1_4 | Updating lookahead routing information for flit 10.
11 | network_0/router_level1_11 | Beginning switch allocation for VC 0 at input 1 (front: 3).
11 | network_0/router_level1_11 |   Requesting output 12.0 (non-spec, pri: 0).
11 | network_0/router_level1_11/sw_allocator | Input requests = [ 1 -> [ 12@0 ]  4 -> [ 13@0 ]  ], output requests = [ 12 -> [ 1@0 ]  13 -> [ 4@0 ]  ].
11 | network_0/router_level1_11/sw_allocator | Input grants = [ 1 -> 12  4 -> 13  ], output grants = [ 12 -> 1  13 -> 4  ].
11 | network_0/router_level1_11 | Assigning output 12.0 to VC 0 at input 1.0.
11 | network_0/router_level1_11 | Completed switch allocation for VC 0 at input 1 (front: 3).
11 | network_0/router_level1_11 |   Scheduling switch connection from input 1.0 to output 12.0.
11 | network_0/router_level1_11 | Updating lookahead routing information for flit 3.
11 | network_0/router_level1_18 | Beginning switch allocation for VC 0 at input 1 (front: 9).
11 | network_0/router_level1_18 |   Requesting output 7.0 (non-spec, pri: 0).
11 | network_0/router_level1_18/sw_allocator | Input requests = [ 1 -> [ 7@0 ]  ], output requests = [ 7 -> [ 1@0 ]  ].
11 | network_0/router_level1_18/sw_allocator | Input grants = [ 1 -> 7  ], output grants = [ 7 -> 1  ].
11 | network_0/router_level1_18 | Assigning output 7.0 to VC 0 at input 1.0.
11 | network_0/router_level1_18 | Completed switch allocation for VC 0 at input 1 (front: 9).
11 | network_0/router_level1_18 |   Scheduling switch connection from input 1.0 to output 7.0.
11 | network_0/router_level1_18 | Updating lookahead routing information for flit 9.
11 | network_0/router_level1_21 | Beginning switch allocation for VC 0 at input 1 (front: 5).
11 | network_0/router_level1_21 |   Requesting output 10.0 (non-spec, pri: 0).
11 | network_0/router_level1_21/sw_allocator | Input requests = [ 1 -> [ 10@0 ]  4 -> [ 12@0 ]  ], output requests = [ 10 -> [ 1@0 ]  12 -> [ 4@0 ]  ].
11 | network_0/router_level1_21/sw_allocator | Input grants = [ 1 -> 10  4 -> 12  ], output grants = [ 10 -> 1  12 -> 4  ].
11 | network_0/router_level1_21 | Assigning output 10.0 to VC 0 at input 1.0.
11 | network_0/router_level1_21 | Completed switch allocation for VC 0 at input 1 (front: 5).
11 | network_0/router_level1_21 |   Scheduling switch connection from input 1.0 to output 10.0.
11 | network_0/router_level1_21 | Updating lookahead routing information for flit 5.
11 | network_0/router_level1_50 | Beginning switch allocation for VC 0 at input 1 (front: 4).
11 | network_0/router_level1_50 |   Requesting output 13.0 (non-spec, pri: 0).
11 | network_0/router_level1_50/sw_allocator | Input requests = [ 1 -> [ 13@0 ]  ], output requests = [ 13 -> [ 1@0 ]  ].
11 | network_0/router_level1_50/sw_allocator | Input grants = [ 1 -> 13  ], output grants = [ 13 -> 1  ].
11 | network_0/router_level1_50 | Assigning output 13.0 to VC 0 at input 1.0.
11 | network_0/router_level1_50 | Completed switch allocation for VC 0 at input 1 (front: 4).
11 | network_0/router_level1_50 |   Scheduling switch connection from input 1.0 to output 13.0.
11 | network_0/router_level1_50 | Updating lookahead routing information for flit 4.
11 | network_0/router_level1_51 | Beginning switch allocation for VC 0 at input 0 (front: 2).
11 | network_0/router_level1_51 |   Requesting output 15.0 (non-spec, pri: 0).
[...]
27 | network_0/router_level3_129 | Assigning output 6.0 to VC 0 at input 12.0.
27 | network_0/router_level3_129 | Completed switch allocation for VC 0 at input 12 (front: 10).
27 | network_0/router_level3_129 |   Scheduling switch connection from input 12.0 to output 6.0.
27 | network_0/router_level3_151 | Beginning switch allocation for VC 0 at input 11 (front: 3).
27 | network_0/router_level3_151 |   Requesting output 1.0 (non-spec, pri: 0).
27 | network_0/router_level3_151/sw_allocator | Input requests = [ 0 -> [ 13@0 ]  4 -> [ 11@0 ]  11 -> [ 1@0 ]  ], output requests = [ 1 -> [ 11@0 ]  11 -> [ 4@0 ]  13 -> [ 0@0 ]  ].
27 | network_0/router_level3_151/sw_allocator | Input grants = [ 0 -> 13  4 -> 11  11 -> 1  ], output grants = [ 1 -> 11  11 -> 4  13 -> 0  ].
27 | network_0/router_level3_151 | Assigning output 1.0 to VC 0 at input 11.0.
27 | network_0/router_level3_151 | Completed switch allocation for VC 0 at input 11 (front: 3).
27 | network_0/router_level3_151 |   Scheduling switch connection from input 11.0 to output 1.0.
27 | network_0/router_level3_171 | Beginning switch allocation for VC 0 at input 15 (front: 6).
27 | network_0/router_level3_171 |   Requesting output 2.0 (non-spec, pri: 0).
27 | network_0/router_level3_171/sw_allocator | Input requests = [ 2 -> [ 11@0 ]  15 -> [ 2@0 ]  ], output requests = [ 2 -> [ 15@0 ]  11 -> [ 2@0 ]  ].
27 | network_0/router_level3_171/sw_allocator | Input grants = [ 2 -> 11  15 -> 2  ], output grants = [ 2 -> 15  11 -> 2  ].
27 | network_0/router_level3_171 | Assigning output 2.0 to VC 0 at input 15.0.
27 | network_0/router_level3_171 | Completed switch allocation for VC 0 at input 15 (front: 6).
27 | network_0/router_level3_171 |   Scheduling switch connection from input 15.0 to output 2.0.
27 | network_0/router_level3_222 | Beginning switch allocation for VC 0 at input 11 (front: 2).
27 | network_0/router_level3_222 |   Requesting output 3.0 (non-spec, pri: 0).
27 | network_0/router_level3_222/sw_allocator | Input requests = [ 2 -> [ 11@0 ]  4 -> [ 12@0 ]  11 -> [ 3@0 ]  ], output requests = [ 3 -> [ 11@0 ]  11 -> [ 2@0 ]  12 -> [ 4@0 ]  ].
27 | network_0/router_level3_222/sw_allocator | Input grants = [ 2 -> 11  4 -> 12  11 -> 3  ], output grants = [ 3 -> 11  11 -> 2  12 -> 4  ].
27 | network_0/router_level3_222 | Assigning output 3.0 to VC 0 at input 11.0.
27 | network_0/router_level3_222 | Completed switch allocation for VC 0 at input 11 (front: 2).
27 | network_0/router_level3_222 |   Scheduling switch connection from input 11.0 to output 3.0.
27 | network_0/router_level3_224 | Beginning switch allocation for VC 0 at input 9 (front: 8).
27 | network_0/router_level3_224 |   Requesting output 3.0 (non-spec, pri: 0).
27 | network_0/router_level3_224/sw_allocator | Input requests = [ 1 -> [ 14@0 ]  8 -> [ 5@0 ]  9 -> [ 3@0 ]  11 -> [ 0@0 ]  ], output requests = [ 0 -> [ 11@0 ]  3 -> [ 9@0 ]  5 -> [ 8@0 ]  14 -> [ 1@0 ]  ].
27 | network_0/router_level3_224/sw_allocator | Input grants = [ 1 -> 14  8 -> 5  9 -> 3  11 -> 0  ], output grants = [ 0 -> 11  3 -> 9  5 -> 8  14 -> 1  ].
27 | network_0/router_level3_224 | Assigning output 3.0 to VC 0 at input 9.0.
27 | network_0/router_level3_224 | Completed switch allocation for VC 0 at input 9 (front: 8).
27 | network_0/router_level3_224 |   Scheduling switch connection from input 9.0 to output 3.0.
27 | network_0/router_level3_226 | Beginning switch allocation for VC 0 at input 9 (front: 7).
27 | network_0/router_level3_226 |   Requesting output 2.0 (non-spec, pri: 0).
27 | network_0/router_level3_226/sw_allocator | Input requests = [ 9 -> [ 2@0 ]  14 -> [ 5@0 ]  ], output requests = [ 2 -> [ 9@0 ]  5 -> [ 14@0 ]  ].
27 | network_0/router_level3_226/sw_allocator | Input grants = [ 9 -> 2  14 -> 5  ], output grants = [ 2 -> 9  5 -> 14  ].
27 | network_0/router_level3_226 | Assigning output 2.0 to VC 0 at input 9.0.
27 | network_0/router_level3_226 | Completed switch allocation for VC 0 at input 9 (front: 7).
27 | network_0/router_level3_226 |   Scheduling switch connection from input 9.0 to output 2.0.
27 | network_0/router_level3_247 | Beginning switch allocation for VC 0 at input 10 (front: 1).
27 | network_0/router_level3_247 |   Requesting output 2.0 (non-spec, pri: 0).
27 | network_0/router_level3_247/sw_allocator | Input requests = [ 10 -> [ 2@0 ]  ], output requests = [ 2 -> [ 10@0 ]  ].
27 | network_0/router_level3_247/sw_allocator | Input grants = [ 10 -> 2  ], output grants = [ 2 -> 10  ].
27 | network_0/router_level3_247 | Assigning output 2.0 to VC 0 at input 10.0.
27 | network_0/router_level3_247 | Completed switch allocation for VC 0 at input 10 (front: 1).
27 | network_0/router_level3_247 |   Scheduling switch connection from input 10.0 to output 2.0.
27 | network_0/router_level3_305 | Beginning switch allocation for VC 0 at input 10 (front: 4).
27 | network_0/router_level3_305 |   Requesting output 0.0 (non-spec, pri: 0).
27 | network_0/router_level3_305/sw_allocator | Input requests = [ 10 -> [ 0@0 ]  ], output requests = [ 0 -> [ 10@0 ]  ].
27 | network_0/router_level3_305/sw_allocator | Input grants = [ 10 -> 0  ], output grants = [ 0 -> 10  ].
27 | network_0/router_level3_305 | Assigning output 0.0 to VC 0 at input 10.0.
27 | network_0/router_level3_305 | Completed switch allocation for VC 0 at input 10 (front: 4).
27 | network_0/router_level3_305 |   Scheduling switch connection from input 10.0 to output 0.0.
27 | network_0/router_level3_485 | Beginning switch allocation for VC 0 at input 13 (front: 5).
27 | network_0/router_level3_485 |   Requesting output 6.0 (non-spec, pri: 0).
27 | network_0/router_level3_485/sw_allocator | Input requests = [ 7 -> [ 11@0 ]  13 -> [ 6@0 ]  ], output requests = [ 6 -> [ 13@0 ]  11 -> [ 7@0 ]  ].
27 | network_0/router_level3_485/sw_allocator | Input grants = [ 7 -> 11  13 -> 6  ], output grants = [ 6 -> 13  11 -> 7  ].
27 | network_0/router_level3_485 | Assigning output 6.0 to VC 0 at input 13.0.
27 | network_0/router_level3_485 | Completed switch allocation for VC 0 at input 13 (front: 5).
27 | network_0/router_level3_485 |   Scheduling switch connection from input 13.0 to output 6.0.
28 | network_0/router_level3_129 | Beginning crossbar traversal for flit 10 from input 12.0 to output 6.0.
28 | network_0/router_level3_129 | Completed crossbar traversal for flit 10 from input 12.0 to output 6.0.
28 | network_0/router_level3_129 | Buffering flit 10 at output 6.
28 | network_0/router_level3_151 | Beginning crossbar traversal for flit 3 from input 11.0 to output 1.0.
28 | network_0/router_level3_151 | Completed crossbar traversal for flit 3 from input 11.0 to output 1.0.
28 | network_0/router_level3_151 | Buffering flit 3 at output 1.
28 | network_0/router_level3_171 | Beginning crossbar traversal for flit 6 from input 15.0 to output 2.0.
28 | network_0/router_level3_171 | Completed crossbar traversal for flit 6 from input 15.0 to output 2.0.
28 | network_0/router_level3_171 | Buffering flit 6 at output 2.
28 | network_0/router_level3_222 | Beginning crossbar traversal for flit 2 from input 11.0 to output 3.0.
28 | network_0/router_level3_222 | Completed crossbar traversal for flit 2 from input 11.0 to output 3.0.
28 | network_0/router_level3_222 | Buffering flit 2 at output 3.
28 | network_0/router_level3_224 | Beginning crossbar traversal for flit 8 from input 9.0 to output 3.0.
28 | network_0/router_level3_224 | Completed crossbar traversal for flit 8 from input 9.0 to output 3.0.
28 | network_0/router_level3_224 | Buffering flit 8 at output 3.
28 | network_0/router_level3_226 | Beginning crossbar traversal for flit 7 from input 9.0 to output 2.0.
28 | network_0/router_level3_226 | Completed crossbar traversal for flit 7 from input 9.0 to output 2.0.
28 | network_0/router_level3_226 | Buffering flit 7 at output 2.
28 | network_0/router_level3_247 | Beginning crossbar traversal for flit 1 from input 10.0 to output 2.0.
28 | network_0/router_level3_247 | Completed crossbar traversal for flit 1 from input 10.0 to output 2.0.
28 | network_0/router_level3_247 | Buffering flit 1 at output 2.
28 | network_0/router_level3_305 | Beginning crossbar traversal for flit 4 from input 10.0 to output 0.0.
28 | network_0/router_level3_305 | Completed crossbar traversal for flit 4 from input 10.0 to output 0.0.
28 | network_0/router_level3_305 | Buffering flit 4 at output 0.
28 | network_0/router_level3_485 | Beginning crossbar traversal for flit 5 from input 13.0 to output 6.0.
28 | network_0/router_level3_485 | Completed crossbar traversal for flit 5 from input 13.0 to output 6.0.
28 | network_0/router_level3_485 | Buffering flit 5 at output 6.
28 | network_0/router_level3_129 | Sending flit 10 to channel at output 6.
28 | network_0/router_level3_151 | Sending flit 3 to channel at output 1.
28 | network_0/router_level3_171 | Sending flit 6 to channel at output 2.
28 | network_0/router_level3_222 | Sending flit 2 to channel at output 3.
28 | network_0/router_level3_224 | Sending flit 8 to channel at output 3.
28 | network_0/router_level3_226 | Sending flit 7 to channel at output 2.
28 | network_0/router_level3_247 | Sending flit 1 to channel at output 2.
28 | network_0/router_level3_305 | Sending flit 4 to channel at output 0.
28 | network_0/router_level3_485 | Sending flit 5 to channel at output 6.
29 | network_0/network_0_fchan_egress1038 | Beginning channel traversal for flit 10 with delay 1.
29 | network_0/network_0_fchan_egress1209 | Beginning channel traversal for flit 3 with delay 1.
29 | network_0/network_0_fchan_egress1370 | Beginning channel traversal for flit 6 with delay 1.
29 | network_0/network_0_fchan_egress1779 | Beginning channel traversal for flit 2 with delay 1.
29 | network_0/network_0_fchan_egress1795 | Beginning channel traversal for flit 8 with delay 1.
29 | network_0/network_0_fchan_egress1810 | Beginning channel traversal for flit 7 with delay 1.
29 | network_0/network_0_fchan_egress1978 | Beginning channel traversal for flit 1 with delay 1.
29 | network_0/network_0_fchan_egress2440 | Beginning channel traversal for flit 4 with delay 1.
29 | network_0/network_0_fchan_egress3886 | Beginning channel traversal for flit 5 with delay 1.
29 | network_0/network_0_fchan_egress1038 | Completed channel traversal for flit 10.
29 | network_0/network_0_fchan_egress1209 | Completed channel traversal for flit 3.
29 | network_0/network_0_fchan_egress1370 | Completed channel traversal for flit 6.
29 | network_0/network_0_fchan_egress1779 | Completed channel traversal for flit 2.
29 | network_0/network_0_fchan_egress1795 | Completed channel traversal for flit 8.
29 | network_0/network_0_fchan_egress1810 | Completed channel traversal for flit 7.
29 | network_0/network_0_fchan_egress1978 | Completed channel traversal for flit 1.
29 | network_0/network_0_fchan_egress2440 | Completed channel traversal for flit 4.
29 | network_0/network_0_fchan_egress3886 | Completed channel traversal for flit 5.
30 | node1038 | Ejecting flit 10 (packet 10) from VC 0.
30 | node1209 | Ejecting flit 3 (packet 3) from VC 0.
30 | node1370 | Ejecting flit 6 (packet 6) from VC 0.
30 | node1779 | Ejecting flit 2 (packet 2) from VC 0.
30 | node1795 | Ejecting flit 8 (packet 8) from VC 0.
30 | node1810 | Ejecting flit 7 (packet 7) from VC 0.
30 | node1978 | Ejecting flit 1 (packet 1) from VC 0.
30 | node2440 | Ejecting flit 4 (packet 4) from VC 0.
30 | node3886 | Ejecting flit 5 (packet 5) from VC 0.
30 | node1038 | Injecting credit for VC 0 into subnet 0.
30 | node1038 | Retiring flit 10 (packet 10, src = 121, dest = 1038, hops = 7, flat = 30).
30 | node1038 | Retiring packet 10 (plat = 30, nlat = 30, frag = 0, src = 121, dest = 1038).
30 | node1209 | Injecting credit for VC 0 into subnet 0.
30 | node1209 | Retiring flit 3 (packet 3, src = 77, dest = 1209, hops = 7, flat = 30).
30 | node1209 | Retiring packet 3 (plat = 30, nlat = 30, frag = 0, src = 77, dest = 1209).
30 | node1370 | Injecting credit for VC 0 into subnet 0.
30 | node1370 | Retiring flit 6 (packet 6, src = 101, dest = 1370, hops = 7, flat = 30).
30 | node1370 | Retiring packet 6 (plat = 30, nlat = 30, frag = 0, src = 101, dest = 1370).
30 | node1779 | Injecting credit for VC 0 into subnet 0.
30 | node1779 | Retiring flit 2 (packet 2, src = 62, dest = 1779, hops = 7, flat = 30).
30 | node1779 | Retiring packet 2 (plat = 30, nlat = 30, frag = 0, src = 62, dest = 1779).
30 | node1795 | Injecting credit for VC 0 into subnet 0.
30 | node1795 | Retiring flit 8 (packet 8, src = 110, dest = 1795, hops = 7, flat = 30).
30 | node1795 | Retiring packet 8 (plat = 30, nlat = 30, frag = 0, src = 110, dest = 1795).
30 | node1810 | Injecting credit for VC 0 into subnet 0.
30 | node1810 | Retiring flit 7 (packet 7, src = 102, dest = 1810, hops = 7, flat = 30).
30 | node1810 | Retiring packet 7 (plat = 30, nlat = 30, frag = 0, src = 102, dest = 1810).
30 | node1978 | Injecting credit for VC 0 into subnet 0.
30 | node1978 | Retiring flit 1 (packet 1, src = 34, dest = 1978, hops = 7, flat = 30).
30 | node1978 | Retiring packet 1 (plat = 30, nlat = 30, frag = 0, src = 34, dest = 1978).
30 | node2440 | Injecting credit for VC 0 into subnet 0.
30 | node2440 | Retiring flit 4 (packet 4, src = 84, dest = 2440, hops = 7, flat = 30).
30 | node2440 | Retiring packet 4 (plat = 30, nlat = 30, frag = 0, src = 84, dest = 2440).
30 | node3886 | Injecting credit for VC 0 into subnet 0.
30 | node3886 | Retiring flit 5 (packet 5, src = 93, dest = 3886, hops = 7, flat = 30).
30 | node3886 | Retiring packet 5 (plat = 30, nlat = 30, frag = 0, src = 93, dest = 3886).
Class 0:
Packet latency average = 29.2254
	minimum = 6
	maximum = 38
Network latency average = 29.2254
	minimum = 6
	maximum = 38
Slowest packet = 254834
Flit latency average = 29.2254
	minimum = 6
	maximum = 38
Slowest flit = 254834
Fragmentation average = 0
	minimum = 0
	maximum = 0
Injected packet rate average = 0.0998809
	minimum = 0.068 (at node 2841)
	maximum = 0.136 (at node 1815)
Accepted packet rate average = 0.0969731
	minimum = 0.067 (at node 2414)
	maximum = 0.134 (at node 2594)
Injected flit rate average = 0.0998809
	minimum = 0.068 (at node 2841)
	maximum = 0.136 (at node 1815)
Accepted flit rate average= 0.0969731
	minimum = 0.067 (at node 2414)
	maximum = 0.134 (at node 2594)
Injected packet length average = 1
Accepted packet length average = 1
Total in-flight flits = 11910 (0 measured)
latency change    = 1
throughput change = 1
Class 0:
Packet latency average = 29.235
	minimum = 6
	maximum = 38
Network latency average = 29.235
	minimum = 6
	maximum = 38
Slowest packet = 254834
Flit latency average = 29.235
	minimum = 6
	maximum = 38
Slowest flit = 254834
Fragmentation average = 0
	minimum = 0
	maximum = 0
Injected packet rate average = 0.0999166
	minimum = 0.08 (at node 2730)
	maximum = 0.125 (at node 1045)
Accepted packet rate average = 0.098464
	minimum = 0.076 (at node 1469)
	maximum = 0.122 (at node 1707)
Injected flit rate average = 0.0999166
	minimum = 0.08 (at node 2730)
	maximum = 0.125 (at node 1045)
Accepted flit rate average= 0.098464
	minimum = 0.076 (at node 1469)
	maximum = 0.122 (at node 1707)
Injected packet length average = 1
Accepted packet length average = 1
Total in-flight flits = 11900 (0 measured)
latency change    = 0.000326683
throughput change = 0.015141
Class 0:
Packet latency average = 29.2446
	minimum = 6
	maximum = 38
Network latency average = 29.2446
	minimum = 6
	maximum = 38
Slowest packet = 823483
Flit latency average = 29.2446
	minimum = 6
	maximum = 38
Slowest flit = 823483
Fragmentation average = 0
	minimum = 0
	maximum = 0
Injected packet rate average = 0.100041
	minimum = 0.065 (at node 1989)
	maximum = 0.132 (at node 863)
Accepted packet rate average = 0.0999983
	minimum = 0.068 (at node 2652)
	maximum = 0.137 (at node 785)
Injected flit rate average = 0.100041
	minimum = 0.065 (at node 1989)
	maximum = 0.132 (at node 863)
Accepted flit rate average= 0.0999983
	minimum = 0.068 (at node 2652)
	maximum = 0.137 (at node 785)
Injected packet length average = 1
Accepted packet length average = 1
Total in-flight flits = 12076 (0 measured)
latency change    = 0.000328064
throughput change = 0.0153433
Warmed up ...Time used is 3000 cycles
Class 0:
Packet latency average = 29.2203
	minimum = 6
	maximum = 40
Network latency average = 29.2203
	minimum = 6
	maximum = 40
Slowest packet = 1413388
Flit latency average = 29.2337
	minimum = 6
	maximum = 40
Slowest flit = 1413388
Fragmentation average = 0
	minimum = 0
	maximum = 0
Injected packet rate average = 0.0998091
	minimum = 0.07 (at node 1103)
	maximum = 0.137 (at node 2489)
Accepted packet rate average = 0.0998435
	minimum = 0.063 (at node 117)
	maximum = 0.136 (at node 2400)
Injected flit rate average = 0.0998091
	minimum = 0.07 (at node 1103)
	maximum = 0.137 (at node 2489)
Accepted flit rate average= 0.0998435
	minimum = 0.063 (at node 117)
	maximum = 0.136 (at node 2400)
Injected packet length average = 1
Accepted packet length average = 1
Total in-flight flits = 11935 (11935 measured)
latency change    = 0.000831874
throughput change = 0.00155028
Class 0:
Packet latency average = 29.2323
	minimum = 6
	maximum = 40
Network latency average = 29.2323
	minimum = 6
	maximum = 40
Slowest packet = 1413388
Flit latency average = 29.2388
	minimum = 6
	maximum = 40
Slowest flit = 1413388
Fragmentation average = 0
	minimum = 0
	maximum = 0
Injected packet rate average = 0.0999216
	minimum = 0.0795 (at node 382)
	maximum = 0.1255 (at node 3854)
Accepted packet rate average = 0.0999656
	minimum = 0.077 (at node 1639)
	maximum = 0.125 (at node 2400)
Injected flit rate average = 0.0999216
	minimum = 0.0795 (at node 382)
	maximum = 0.1255 (at node 3854)
Accepted flit rate average= 0.0999656
	minimum = 0.077 (at node 1639)
	maximum = 0.125 (at node 2400)
Injected packet length average = 1
Accepted packet length average = 1
Total in-flight flits = 11716 (11716 measured)
latency change    = 0.000411416
throughput change = 0.00122112
Class 0:
Packet latency average = 29.2347
	minimum = 6
	maximum = 40
Network latency average = 29.2347
	minimum = 6
	maximum = 40
Slowest packet = 1413388
Flit latency average = 29.2391
	minimum = 6
	maximum = 40
Slowest flit = 1413388
Fragmentation average = 0
	minimum = 0
	maximum = 0
Injected packet rate average = 0.100033
	minimum = 0.0833333 (at node 212)
	maximum = 0.117667 (at node 3300)
Accepted packet rate average = 0.100037
	minimum = 0.079 (at node 1939)
	maximum = 0.12 (at node 1080)
Injected flit rate average = 0.100033
	minimum = 0.0833333 (at node 212)
	maximum = 0.117667 (at node 3300)
Accepted flit rate average= 0.100037
	minimum = 0.079 (at node 1939)
	maximum = 0.12 (at node 1080)
Injected packet length average = 1
Accepted packet length average = 1
Total in-flight flits = 12026 (12026 measured)
latency change    = 8.32565e-05
throughput change = 0.000713441
Draining all recorded packets ...
Draining remaining packets ...
Time taken is 6071 cycles
====== Overall Traffic Statistics ======
====== Traffic class 0 ======
Packet latency average = 29.239 (1 samples)
	minimum = 6 (1 samples)
	maximum = 40 (1 samples)
Network latency average = 29.239 (1 samples)
	minimum = 6 (1 samples)
	maximum = 40 (1 samples)
Flit latency average = 29.2431 (1 samples)
	minimum = 6 (1 samples)
	maximum = 40 (1 samples)
Fragmentation average = 0 (1 samples)
	minimum = 0 (1 samples)
	maximum = 0 (1 samples)
Injected packet rate average = 0.100033 (1 samples)
	minimum = 0.0833333 (1 samples)
	maximum = 0.117667 (1 samples)
Accepted packet rate average = 0.100037 (1 samples)
	minimum = 0.079 (1 samples)
	maximum = 0.12 (1 samples)
Injected flit rate average = 0.100033 (1 samples)
	minimum = 0.0833333 (1 samples)
	maximum = 0.117667 (1 samples)
Accepted flit rate average = 0.100037 (1 samples)
	minimum = 0.079 (1 samples)
	maximum = 0.12 (1 samples)
Injected packet size average = 1 (1 samples)
Accepted packet size average = 1 (1 samples)
Hops average = 6.71479 (1 samples)
Total run time 321.873
