BEGIN Configuration File: examples/fattree_config_0.75_1_transpose
// $Id: dragonflyconfig 3555 2011-05-16 23:37:55Z dub $

// Copyright (c) 2007-2015, Trustees of The Leland Stanford Junior University
// All rights reserved.
//
// Redistribution and use in source and binary forms, with or without
// modification, are permitted provided that the following conditions are met:
//
// Redistributions of source code must retain the above copyright notice, this
// list of conditions and the following disclaimer.
// Redistributions in binary form must reproduce the above copyright notice,
// this list of conditions and the following disclaimer in the documentation
// and/or other materials provided with the distribution.
//
// THIS SOFTWARE IS PROVIDED BY THE COPYRIGHT HOLDERS AND CONTRIBUTORS "AS IS"
// AND ANY EXPRESS OR IMPLIED WARRANTIES, INCLUDING, BUT NOT LIMITED TO, THE
// IMPLIED WARRANTIES OF MERCHANTABILITY AND FITNESS FOR A PARTICULAR PURPOSE
// ARE DISCLAIMED. IN NO EVENT SHALL THE COPYRIGHT OWNER OR CONTRIBUTORS BE
// LIABLE FOR ANY DIRECT, INDIRECT, INCIDENTAL, SPECIAL, EXEMPLARY, OR
// CONSEQUENTIAL DAMAGES (INCLUDING, BUT NOT LIMITED TO, PROCUREMENT OF
// SUBSTITUTE GOODS OR SERVICES; LOSS OF USE, DATA, OR PROFITS; OR BUSINESS
// INTERRUPTION) HOWEVER CAUSED AND ON ANY THEORY OF LIABILITY, WHETHER IN
// CONTRACT, STRICT LIABILITY, OR TORT (INCLUDING NEGLIGENCE OR OTHERWISE)
// ARISING IN ANY WAY OUT OF THE USE OF THIS SOFTWARE, EVEN IF ADVISED OF THE
// POSSIBILITY OF SUCH DAMAGE.


hold_switch_for_packet=1;

vc_buf_size = 16;


wait_for_tail_credit = 0;

//
// Router architecture
//
vc_allocator = separable_input_first; 
sw_allocator = separable_input_first;
alloc_iters  = 1;

credit_delay   = 2;
routing_delay  = 0;
vc_alloc_delay = 1;
sw_alloc_delay = 1;
st_final_delay = 1;

input_speedup     = 1;
output_speedup    = 1;
internal_speedup  = 1.0;


warmup_periods = 3;
sim_count          = 1;

sample_period  = 1000;  

routing_function = nca;
num_vcs     = 4;

priority = none;
traffic = transpose;


injection_rate = 0.75;
packet_size = 1;
injection_rate_uses_flits=1;

topology = fattree;

k  = 8;
n  = 4;
t = 1;

watch_file = watchfile.txt;
watch_out=-;
stats_out = examples/fattree_config_0.75_1_transpose.m;

END Configuration File: examples/fattree_config_0.75_1_transpose
Fat Tree
 k = 8 levels = 4
 each switch - total radix =  16
 # of switches = 2048
 # of channels = 24576
 # of nodes ( size of network ) = 4096
 tapering factor = 1
0 | node2 | Enqueuing flit 1 (packet 1) at time 0.
0 | node3 | Enqueuing flit 2 (packet 2) at time 0.
0 | node4 | Enqueuing flit 3 (packet 3) at time 0.
0 | node5 | Enqueuing flit 4 (packet 4) at time 0.
0 | node8 | Enqueuing flit 5 (packet 5) at time 0.
0 | node9 | Enqueuing flit 6 (packet 6) at time 0.
0 | node11 | Enqueuing flit 7 (packet 7) at time 0.
0 | node12 | Enqueuing flit 8 (packet 8) at time 0.
0 | node13 | Enqueuing flit 9 (packet 9) at time 0.
0 | node14 | Enqueuing flit 10 (packet 10) at time 0.
0 | traffic_manager | Finding output VC for flit 1:
0 | traffic_manager |   Selected output VC 0.
0 | node2 | Generating lookahead routing info for flit 1.
0 | node2 | Injecting flit 1 into subnet 0 at time 0 with priority 0.
0 | traffic_manager | Finding output VC for flit 2:
0 | traffic_manager |   Selected output VC 0.
0 | node3 | Generating lookahead routing info for flit 2.
0 | node3 | Injecting flit 2 into subnet 0 at time 0 with priority 0.
0 | traffic_manager | Finding output VC for flit 3:
0 | traffic_manager |   Selected output VC 0.
0 | node4 | Generating lookahead routing info for flit 3.
0 | node4 | Injecting flit 3 into subnet 0 at time 0 with priority 0.
0 | traffic_manager | Finding output VC for flit 4:
0 | traffic_manager |   Selected output VC 0.
0 | node5 | Generating lookahead routing info for flit 4.
0 | node5 | Injecting flit 4 into subnet 0 at time 0 with priority 0.
0 | traffic_manager | Finding output VC for flit 5:
0 | traffic_manager |   Selected output VC 0.
0 | node8 | Generating lookahead routing info for flit 5.
0 | node8 | Injecting flit 5 into subnet 0 at time 0 with priority 0.
0 | traffic_manager | Finding output VC for flit 6:
0 | traffic_manager |   Selected output VC 0.
0 | node9 | Generating lookahead routing info for flit 6.
0 | node9 | Injecting flit 6 into subnet 0 at time 0 with priority 0.
0 | traffic_manager | Finding output VC for flit 7:
0 | traffic_manager |   Selected output VC 0.
0 | node11 | Generating lookahead routing info for flit 7.
0 | node11 | Injecting flit 7 into subnet 0 at time 0 with priority 0.
0 | traffic_manager | Finding output VC for flit 8:
0 | traffic_manager |   Selected output VC 0.
0 | node12 | Generating lookahead routing info for flit 8.
0 | node12 | Injecting flit 8 into subnet 0 at time 0 with priority 0.
0 | traffic_manager | Finding output VC for flit 9:
0 | traffic_manager |   Selected output VC 0.
0 | node13 | Generating lookahead routing info for flit 9.
0 | node13 | Injecting flit 9 into subnet 0 at time 0 with priority 0.
0 | traffic_manager | Finding output VC for flit 10:
0 | traffic_manager |   Selected output VC 0.
0 | node14 | Generating lookahead routing info for flit 10.
0 | node14 | Injecting flit 10 into subnet 0 at time 0 with priority 0.
1 | network_0/network_0_fchan_ingress2 | Beginning channel traversal for flit 1 with delay 1.
1 | network_0/network_0_fchan_ingress3 | Beginning channel traversal for flit 2 with delay 1.
1 | network_0/network_0_fchan_ingress4 | Beginning channel traversal for flit 3 with delay 1.
1 | network_0/network_0_fchan_ingress5 | Beginning channel traversal for flit 4 with delay 1.
1 | network_0/network_0_fchan_ingress8 | Beginning channel traversal for flit 5 with delay 1.
1 | network_0/network_0_fchan_ingress9 | Beginning channel traversal for flit 6 with delay 1.
1 | network_0/network_0_fchan_ingress11 | Beginning channel traversal for flit 7 with delay 1.
1 | network_0/network_0_fchan_ingress12 | Beginning channel traversal for flit 8 with delay 1.
1 | network_0/network_0_fchan_ingress13 | Beginning channel traversal for flit 9 with delay 1.
1 | network_0/network_0_fchan_ingress14 | Beginning channel traversal for flit 10 with delay 1.
1 | network_0/network_0_fchan_ingress2 | Completed channel traversal for flit 1.
1 | network_0/network_0_fchan_ingress3 | Completed channel traversal for flit 2.
1 | network_0/network_0_fchan_ingress4 | Completed channel traversal for flit 3.
1 | network_0/network_0_fchan_ingress5 | Completed channel traversal for flit 4.
1 | network_0/network_0_fchan_ingress8 | Completed channel traversal for flit 5.
1 | network_0/network_0_fchan_ingress9 | Completed channel traversal for flit 6.
1 | network_0/network_0_fchan_ingress11 | Completed channel traversal for flit 7.
1 | network_0/network_0_fchan_ingress12 | Completed channel traversal for flit 8.
1 | network_0/network_0_fchan_ingress13 | Completed channel traversal for flit 9.
1 | network_0/network_0_fchan_ingress14 | Completed channel traversal for flit 10.
2 | network_0/router_level3_0 | Received flit 1 from channel at input 2.
2 | network_0/router_level3_0 | Received flit 2 from channel at input 3.
2 | network_0/router_level3_0 | Received flit 3 from channel at input 4.
2 | network_0/router_level3_0 | Received flit 4 from channel at input 5.
2 | network_0/router_level3_1 | Received flit 5 from channel at input 0.
2 | network_0/router_level3_1 | Received flit 6 from channel at input 1.
2 | network_0/router_level3_1 | Received flit 7 from channel at input 3.
2 | network_0/router_level3_1 | Received flit 8 from channel at input 4.
2 | network_0/router_level3_1 | Received flit 9 from channel at input 5.
2 | network_0/router_level3_1 | Received flit 10 from channel at input 6.
2 | network_0/router_level3_0 | Adding flit 1 to VC 0 at input 2 (state: idle, empty).
2 | network_0/router_level3_0 | Using precomputed lookahead routing information for VC 0 at input 2 (front: 1).
2 | network_0/router_level3_0/buf_2/vc_0 | Changing state from idle to vc_alloc.
2 | network_0/router_level3_0 | Adding flit 2 to VC 0 at input 3 (state: idle, empty).
2 | network_0/router_level3_0 | Using precomputed lookahead routing information for VC 0 at input 3 (front: 2).
2 | network_0/router_level3_0/buf_3/vc_0 | Changing state from idle to vc_alloc.
2 | network_0/router_level3_0 | Adding flit 3 to VC 0 at input 4 (state: idle, empty).
2 | network_0/router_level3_0 | Using precomputed lookahead routing information for VC 0 at input 4 (front: 3).
2 | network_0/router_level3_0/buf_4/vc_0 | Changing state from idle to vc_alloc.
2 | network_0/router_level3_0 | Adding flit 4 to VC 0 at input 5 (state: idle, empty).
2 | network_0/router_level3_0 | Using precomputed lookahead routing information for VC 0 at input 5 (front: 4).
2 | network_0/router_level3_0/buf_5/vc_0 | Changing state from idle to vc_alloc.
2 | network_0/router_level3_0 | Beginning VC allocation for VC 0 at input 2 (front: 1).
2 | network_0/router_level3_0 |   Requesting VC 0 at output 14 (in_pri: 0, out_pri: 0).
2 | network_0/router_level3_0 |   Requesting VC 1 at output 14 (in_pri: 0, out_pri: 0).
2 | network_0/router_level3_0 |   Requesting VC 2 at output 14 (in_pri: 0, out_pri: 0).
2 | network_0/router_level3_0 |   Requesting VC 3 at output 14 (in_pri: 0, out_pri: 0).
2 | network_0/router_level3_0 | Beginning VC allocation for VC 0 at input 3 (front: 2).
2 | network_0/router_level3_0 |   Requesting VC 0 at output 9 (in_pri: 0, out_pri: 0).
2 | network_0/router_level3_0 |   Requesting VC 1 at output 9 (in_pri: 0, out_pri: 0).
2 | network_0/router_level3_0 |   Requesting VC 2 at output 9 (in_pri: 0, out_pri: 0).
2 | network_0/router_level3_0 |   Requesting VC 3 at output 9 (in_pri: 0, out_pri: 0).
2 | network_0/router_level3_0 | Beginning VC allocation for VC 0 at input 4 (front: 3).
2 | network_0/router_level3_0 |   Requesting VC 0 at output 8 (in_pri: 0, out_pri: 0).
2 | network_0/router_level3_0 |   Requesting VC 1 at output 8 (in_pri: 0, out_pri: 0).
2 | network_0/router_level3_0 |   Requesting VC 2 at output 8 (in_pri: 0, out_pri: 0).
2 | network_0/router_level3_0 |   Requesting VC 3 at output 8 (in_pri: 0, out_pri: 0).
2 | network_0/router_level3_0 | Beginning VC allocation for VC 0 at input 5 (front: 4).
2 | network_0/router_level3_0 |   Requesting VC 0 at output 14 (in_pri: 0, out_pri: 0).
2 | network_0/router_level3_0 |   Requesting VC 1 at output 14 (in_pri: 0, out_pri: 0).
2 | network_0/router_level3_0 |   Requesting VC 2 at output 14 (in_pri: 0, out_pri: 0).
2 | network_0/router_level3_0 |   Requesting VC 3 at output 14 (in_pri: 0, out_pri: 0).
2 | network_0/router_level3_0/vc_allocator | Input requests = [ 4 -> [ 60@0 61@0 62@0 63@0 ]  8 -> [ 56@0 57@0 58@0 59@0 ]  12 -> [ 36@0 37@0 38@0 39@0 ]  16 -> [ 32@0 33@0 34@0 35@0 ]  20 -> [ 56@0 57@0 58@0 59@0 ]  ], output requests = [ 32 -> [ 16@0 ]  33 -> [ 16@0 ]  34 -> [ 16@0 ]  35 -> [ 16@0 ]  36 -> [ 12@0 ]  37 -> [ 12@0 ]  38 -> [ 12@0 ]  39 -> [ 12@0 ]  56 -> [ 8@0 20@0 ]  57 -> [ 8@0 20@0 ]  58 -> [ 8@0 20@0 ]  59 -> [ 8@0 20@0 ]  60 -> [ 4@0 ]  61 -> [ 4@0 ]  62 -> [ 4@0 ]  63 -> [ 4@0 ]  ].
2 | network_0/router_level3_0/vc_allocator | Input grants = [ 4 -> 60  8 -> 56  12 -> 36  16 -> 32  ], output grants = [ 32 -> 16  36 -> 12  56 -> 8  60 -> 4  ].
2 | network_0/router_level3_0 | Assigning VC 0 at output 14 to VC 0 at input 2.
2 | network_0/router_level3_0 | Assigning VC 0 at output 9 to VC 0 at input 3.
2 | network_0/router_level3_0 | Assigning VC 0 at output 8 to VC 0 at input 4.
2 | network_0/router_level3_0 | VC allocation failed for VC 0 at input 5.
2 | network_0/router_level3_0 | Completed VC allocation for VC 0 at input 2 (front: 1).
2 | network_0/router_level3_0 |   Acquiring assigned VC 0 at output 14.
2 | network_0/router_level3_0/buf_2/vc_0 | Changing state from vc_alloc to active.
2 | network_0/router_level3_0 | Completed VC allocation for VC 0 at input 3 (front: 2).
2 | network_0/router_level3_0 |   Acquiring assigned VC 0 at output 9.
2 | network_0/router_level3_0/buf_3/vc_0 | Changing state from vc_alloc to active.
2 | network_0/router_level3_0 | Completed VC allocation for VC 0 at input 4 (front: 3).
2 | network_0/router_level3_0 |   Acquiring assigned VC 0 at output 8.
2 | network_0/router_level3_0/buf_4/vc_0 | Changing state from vc_alloc to active.
2 | network_0/router_level3_0 | Completed VC allocation for VC 0 at input 5 (front: 4).
2 | network_0/router_level3_0 |   No output VC allocated.
2 | network_0/router_level3_1 | Adding flit 5 to VC 0 at input 0 (state: idle, empty).
2 | network_0/router_level3_1 | Using precomputed lookahead routing information for VC 0 at input 0 (front: 5).
2 | network_0/router_level3_1/buf_0/vc_0 | Changing state from idle to vc_alloc.
2 | network_0/router_level3_1 | Adding flit 6 to VC 0 at input 1 (state: idle, empty).
2 | network_0/router_level3_1 | Using precomputed lookahead routing information for VC 0 at input 1 (front: 6).
2 | network_0/router_level3_1/buf_1/vc_0 | Changing state from idle to vc_alloc.
2 | network_0/router_level3_1 | Adding flit 7 to VC 0 at input 3 (state: idle, empty).
2 | network_0/router_level3_1 | Using precomputed lookahead routing information for VC 0 at input 3 (front: 7).
2 | network_0/router_level3_1/buf_3/vc_0 | Changing state from idle to vc_alloc.
2 | network_0/router_level3_1 | Adding flit 8 to VC 0 at input 4 (state: idle, empty).
2 | network_0/router_level3_1 | Using precomputed lookahead routing information for VC 0 at input 4 (front: 8).
2 | network_0/router_level3_1/buf_4/vc_0 | Changing state from idle to vc_alloc.
2 | network_0/router_level3_1 | Adding flit 9 to VC 0 at input 5 (state: idle, empty).
2 | network_0/router_level3_1 | Using precomputed lookahead routing information for VC 0 at input 5 (front: 9).
2 | network_0/router_level3_1/buf_5/vc_0 | Changing state from idle to vc_alloc.
2 | network_0/router_level3_1 | Adding flit 10 to VC 0 at input 6 (state: idle, empty).
2 | network_0/router_level3_1 | Using precomputed lookahead routing information for VC 0 at input 6 (front: 10).
2 | network_0/router_level3_1/buf_6/vc_0 | Changing state from idle to vc_alloc.
2 | network_0/router_level3_1 | Beginning VC allocation for VC 0 at input 0 (front: 5).
2 | network_0/router_level3_1 |   Requesting VC 0 at output 15 (in_pri: 0, out_pri: 0).
2 | network_0/router_level3_1 |   Requesting VC 1 at output 15 (in_pri: 0, out_pri: 0).
2 | network_0/router_level3_1 |   Requesting VC 2 at output 15 (in_pri: 0, out_pri: 0).
2 | network_0/router_level3_1 |   Requesting VC 3 at output 15 (in_pri: 0, out_pri: 0).
2 | network_0/router_level3_1 | Beginning VC allocation for VC 0 at input 1 (front: 6).
2 | network_0/router_level3_1 |   Requesting VC 0 at output 9 (in_pri: 0, out_pri: 0).
2 | network_0/router_level3_1 |   Requesting VC 1 at output 9 (in_pri: 0, out_pri: 0).
2 | network_0/router_level3_1 |   Requesting VC 2 at output 9 (in_pri: 0, out_pri: 0).
2 | network_0/router_level3_1 |   Requesting VC 3 at output 9 (in_pri: 0, out_pri: 0).
2 | network_0/router_level3_1 | Beginning VC allocation for VC 0 at input 3 (front: 7).
2 | network_0/router_level3_1 |   Requesting VC 0 at output 14 (in_pri: 0, out_pri: 0).
2 | network_0/router_level3_1 |   Requesting VC 1 at output 14 (in_pri: 0, out_pri: 0).
2 | network_0/router_level3_1 |   Requesting VC 2 at output 14 (in_pri: 0, out_pri: 0).
2 | network_0/router_level3_1 |   Requesting VC 3 at output 14 (in_pri: 0, out_pri: 0).
2 | network_0/router_level3_1 | Beginning VC allocation for VC 0 at input 4 (front: 8).
2 | network_0/router_level3_1 |   Requesting VC 0 at output 8 (in_pri: 0, out_pri: 0).
2 | network_0/router_level3_1 |   Requesting VC 1 at output 8 (in_pri: 0, out_pri: 0).
2 | network_0/router_level3_1 |   Requesting VC 2 at output 8 (in_pri: 0, out_pri: 0).
2 | network_0/router_level3_1 |   Requesting VC 3 at output 8 (in_pri: 0, out_pri: 0).
2 | network_0/router_level3_1 | Beginning VC allocation for VC 0 at input 5 (front: 9).
2 | network_0/router_level3_1 |   Requesting VC 0 at output 13 (in_pri: 0, out_pri: 0).
2 | network_0/router_level3_1 |   Requesting VC 1 at output 13 (in_pri: 0, out_pri: 0).
2 | network_0/router_level3_1 |   Requesting VC 2 at output 13 (in_pri: 0, out_pri: 0).
2 | network_0/router_level3_1 |   Requesting VC 3 at output 13 (in_pri: 0, out_pri: 0).
2 | network_0/router_level3_1 | Beginning VC allocation for VC 0 at input 6 (front: 10).
2 | network_0/router_level3_1 |   Requesting VC 0 at output 10 (in_pri: 0, out_pri: 0).
2 | network_0/router_level3_1 |   Requesting VC 1 at output 10 (in_pri: 0, out_pri: 0).
2 | network_0/router_level3_1 |   Requesting VC 2 at output 10 (in_pri: 0, out_pri: 0).
2 | network_0/router_level3_1 |   Requesting VC 3 at output 10 (in_pri: 0, out_pri: 0).
2 | network_0/router_level3_1/vc_allocator | Input requests = [ 0 -> [ 60@0 61@0 62@0 63@0 ]  4 -> [ 36@0 37@0 38@0 39@0 ]  12 -> [ 56@0 57@0 58@0 59@0 ]  16 -> [ 32@0 33@0 34@0 35@0 ]  20 -> [ 52@0 53@0 54@0 55@0 ]  24 -> [ 40@0 41@0 42@0 43@0 ]  28 -> [ 44@0 45@0 46@0 47@0 ]  ], output requests = [ 32 -> [ 16@0 ]  33 -> [ 16@0 ]  34 -> [ 16@0 ]  35 -> [ 16@0 ]  36 -> [ 4@0 ]  37 -> [ 4@0 ]  38 -> [ 4@0 ]  39 -> [ 4@0 ]  40 -> [ 24@0 ]  41 -> [ 24@0 ]  42 -> [ 24@0 ]  43 -> [ 24@0 ]  44 -> [ 28@0 ]  45 -> [ 28@0 ]  46 -> [ 28@0 ]  47 -> [ 28@0 ]  52 -> [ 20@0 ]  53 -> [ 20@0 ]  54 -> [ 20@0 ]  55 -> [ 20@0 ]  56 -> [ 12@0 ]  57 -> [ 12@0 ]  58 -> [ 12@0 ]  59 -> [ 12@0 ]  60 -> [ 0@0 ]  61 -> [ 0@0 ]  62 -> [ 0@0 ]  63 -> [ 0@0 ]  ].
2 | network_0/router_level3_1/vc_allocator | Input grants = [ 0 -> 60  4 -> 36  12 -> 56  16 -> 32  20 -> 52  24 -> 40  28 -> 44  ], output grants = [ 32 -> 16  36 -> 4  40 -> 24  44 -> 28  52 -> 20  56 -> 12  60 -> 0  ].
2 | network_0/router_level3_1 | Assigning VC 0 at output 15 to VC 0 at input 0.
2 | network_0/router_level3_1 | Assigning VC 0 at output 9 to VC 0 at input 1.
2 | network_0/router_level3_1 | Assigning VC 0 at output 14 to VC 0 at input 3.
2 | network_0/router_level3_1 | Assigning VC 0 at output 8 to VC 0 at input 4.
2 | network_0/router_level3_1 | Assigning VC 0 at output 13 to VC 0 at input 5.
2 | network_0/router_level3_1 | Assigning VC 0 at output 10 to VC 0 at input 6.
2 | network_0/router_level3_1 | Completed VC allocation for VC 0 at input 0 (front: 5).
2 | network_0/router_level3_1 |   Acquiring assigned VC 0 at output 15.
2 | network_0/router_level3_1/buf_0/vc_0 | Changing state from vc_alloc to active.
2 | network_0/router_level3_1 | Completed VC allocation for VC 0 at input 1 (front: 6).
2 | network_0/router_level3_1 |   Acquiring assigned VC 0 at output 9.
2 | network_0/router_level3_1/buf_1/vc_0 | Changing state from vc_alloc to active.
2 | network_0/router_level3_1 | Completed VC allocation for VC 0 at input 3 (front: 7).
2 | network_0/router_level3_1 |   Acquiring assigned VC 0 at output 14.
2 | network_0/router_level3_1/buf_3/vc_0 | Changing state from vc_alloc to active.
2 | network_0/router_level3_1 | Completed VC allocation for VC 0 at input 4 (front: 8).
2 | network_0/router_level3_1 |   Acquiring assigned VC 0 at output 8.
2 | network_0/router_level3_1/buf_4/vc_0 | Changing state from vc_alloc to active.
2 | network_0/router_level3_1 | Completed VC allocation for VC 0 at input 5 (front: 9).
2 | network_0/router_level3_1 |   Acquiring assigned VC 0 at output 13.
2 | network_0/router_level3_1/buf_5/vc_0 | Changing state from vc_alloc to active.
2 | network_0/router_level3_1 | Completed VC allocation for VC 0 at input 6 (front: 10).
2 | network_0/router_level3_1 |   Acquiring assigned VC 0 at output 10.
2 | network_0/router_level3_1/buf_6/vc_0 | Changing state from vc_alloc to active.
3 | network_0/router_level3_0 | Beginning VC allocation for VC 0 at input 5 (front: 4).
3 | network_0/router_level3_0 |   VC 0 at output 14 is in use by VC 0 at input 2 (front flit: 1).
3 | network_0/router_level3_0 |   Requesting VC 1 at output 14 (in_pri: 0, out_pri: 0).
3 | network_0/router_level3_0 |   Requesting VC 2 at output 14 (in_pri: 0, out_pri: 0).
3 | network_0/router_level3_0 |   Requesting VC 3 at output 14 (in_pri: 0, out_pri: 0).
3 | network_0/router_level3_0/vc_allocator | Input requests = [ 0 -> [ 0@0 1@0 2@0 3@0 ]  5 -> [ 33@0 34@0 35@0 ]  9 -> [ 52@0 53@0 54@0 55@0 ]  13 -> [ 61@0 62@0 63@0 ]  17 -> [ 40@0 41@0 42@0 43@0 ]  20 -> [ 57@0 58@0 59@0 ]  21 -> [ 48@0 49@0 50@0 51@0 ]  24 -> [ 40@0 41@0 42@0 43@0 ]  28 -> [ 57@0 58@0 59@0 ]  ], output requests = [ 0 -> [ 0@0 ]  1 -> [ 0@0 ]  2 -> [ 0@0 ]  3 -> [ 0@0 ]  33 -> [ 5@0 ]  34 -> [ 5@0 ]  35 -> [ 5@0 ]  40 -> [ 17@0 24@0 ]  41 -> [ 17@0 24@0 ]  42 -> [ 17@0 24@0 ]  43 -> [ 17@0 24@0 ]  48 -> [ 21@0 ]  49 -> [ 21@0 ]  50 -> [ 21@0 ]  51 -> [ 21@0 ]  52 -> [ 9@0 ]  53 -> [ 9@0 ]  54 -> [ 9@0 ]  55 -> [ 9@0 ]  57 -> [ 20@0 28@0 ]  58 -> [ 20@0 28@0 ]  59 -> [ 20@0 28@0 ]  61 -> [ 13@0 ]  62 -> [ 13@0 ]  63 -> [ 13@0 ]  ].
3 | network_0/router_level3_0/vc_allocator | Input grants = [ 0 -> 0  5 -> 33  9 -> 52  13 -> 61  17 -> 40  20 -> 57  21 -> 48  ], output grants = [ 0 -> 0  33 -> 5  40 -> 17  48 -> 21  52 -> 9  57 -> 20  61 -> 13  ].
3 | network_0/router_level3_0 | Assigning VC 1 at output 14 to VC 0 at input 5.
3 | network_0/router_level3_0 | Beginning switch allocation for VC 0 at input 2 (front: 1).
3 | network_0/router_level3_0 |   Requesting output 14.0 (non-spec, pri: 0).
3 | network_0/router_level3_0 | Beginning switch allocation for VC 0 at input 3 (front: 2).
3 | network_0/router_level3_0 |   Requesting output 9.0 (non-spec, pri: 0).
3 | network_0/router_level3_0 | Beginning switch allocation for VC 0 at input 4 (front: 3).
3 | network_0/router_level3_0 |   Requesting output 8.0 (non-spec, pri: 0).
3 | network_0/router_level3_0/sw_allocator | Input requests = [ 1 -> [ 15@0 ]  2 -> [ 14@0 ]  3 -> [ 9@0 ]  4 -> [ 8@0 ]  ], output requests = [ 8 -> [ 4@0 ]  9 -> [ 3@0 ]  14 -> [ 2@0 ]  15 -> [ 1@0 ]  ].
3 | network_0/router_level3_0/sw_allocator | Input grants = [ 1 -> 15  2 -> 14  3 -> 9  4 -> 8  ], output grants = [ 8 -> 4  9 -> 3  14 -> 2  15 -> 1  ].
3 | network_0/router_level3_0 | Assigning output 14.0 to VC 0 at input 2.0.
3 | network_0/router_level3_0 | Assigning output 9.0 to VC 0 at input 3.0.
3 | network_0/router_level3_0 | Assigning output 8.0 to VC 0 at input 4.0.
3 | network_0/router_level3_0 | Completed VC allocation for VC 0 at input 5 (front: 4).
3 | network_0/router_level3_0 |   Acquiring assigned VC 1 at output 14.
3 | network_0/router_level3_0/buf_5/vc_0 | Changing state from vc_alloc to active.
3 | network_0/router_level3_0 | Completed switch allocation for VC 0 at input 2 (front: 1).
3 | network_0/router_level3_0 |   Scheduling switch connection from input 2.0 to output 14.0.
3 | network_0/router_level3_0 | Updating lookahead routing information for flit 1.
3 | network_0/router_level3_0 | Completed switch allocation for VC 0 at input 3 (front: 2).
3 | network_0/router_level3_0 |   Scheduling switch connection from input 3.0 to output 9.0.
3 | network_0/router_level3_0 | Updating lookahead routing information for flit 2.
3 | network_0/router_level3_0 | Completed switch allocation for VC 0 at input 4 (front: 3).
3 | network_0/router_level3_0 |   Scheduling switch connection from input 4.0 to output 8.0.
3 | network_0/router_level3_0 | Updating lookahead routing information for flit 3.
3 | network_0/router_level3_1 | Beginning switch allocation for VC 0 at input 0 (front: 5).
3 | network_0/router_level3_1 |   Requesting output 15.0 (non-spec, pri: 0).
3 | network_0/router_level3_1 | Beginning switch allocation for VC 0 at input 1 (front: 6).
3 | network_0/router_level3_1 |   Requesting output 9.0 (non-spec, pri: 0).
3 | network_0/router_level3_1 | Beginning switch allocation for VC 0 at input 3 (front: 7).
3 | network_0/router_level3_1 |   Requesting output 14.0 (non-spec, pri: 0).
3 | network_0/router_level3_1 | Beginning switch allocation for VC 0 at input 4 (front: 8).
3 | network_0/router_level3_1 |   Requesting output 8.0 (non-spec, pri: 0).
3 | network_0/router_level3_1 | Beginning switch allocation for VC 0 at input 5 (front: 9).
3 | network_0/router_level3_1 |   Requesting output 13.0 (non-spec, pri: 0).
3 | network_0/router_level3_1 | Beginning switch allocation for VC 0 at input 6 (front: 10).
3 | network_0/router_level3_1 |   Requesting output 10.0 (non-spec, pri: 0).
3 | network_0/router_level3_1/sw_allocator | Input requests = [ 0 -> [ 15@0 ]  1 -> [ 9@0 ]  3 -> [ 14@0 ]  4 -> [ 8@0 ]  5 -> [ 13@0 ]  6 -> [ 10@0 ]  7 -> [ 11@0 ]  ], output requests = [ 8 -> [ 4@0 ]  9 -> [ 1@0 ]  10 -> [ 6@0 ]  11 -> [ 7@0 ]  13 -> [ 5@0 ]  14 -> [ 3@0 ]  15 -> [ 0@0 ]  ].
3 | network_0/router_level3_1/sw_allocator | Input grants = [ 0 -> 15  1 -> 9  3 -> 14  4 -> 8  5 -> 13  6 -> 10  7 -> 11  ], output grants = [ 8 -> 4  9 -> 1  10 -> 6  11 -> 7  13 -> 5  14 -> 3  15 -> 0  ].
3 | network_0/router_level3_1 | Assigning output 15.0 to VC 0 at input 0.0.
3 | network_0/router_level3_1 | Assigning output 9.0 to VC 0 at input 1.0.
3 | network_0/router_level3_1 | Assigning output 14.0 to VC 0 at input 3.0.
3 | network_0/router_level3_1 | Assigning output 8.0 to VC 0 at input 4.0.
3 | network_0/router_level3_1 | Assigning output 13.0 to VC 0 at input 5.0.
3 | network_0/router_level3_1 | Assigning output 10.0 to VC 0 at input 6.0.
3 | network_0/router_level3_1 | Completed switch allocation for VC 0 at input 0 (front: 5).
3 | network_0/router_level3_1 |   Scheduling switch connection from input 0.0 to output 15.0.
3 | network_0/router_level3_1 | Updating lookahead routing information for flit 5.
3 | network_0/router_level3_1 | Completed switch allocation for VC 0 at input 1 (front: 6).
3 | network_0/router_level3_1 |   Scheduling switch connection from input 1.0 to output 9.0.
3 | network_0/router_level3_1 | Updating lookahead routing information for flit 6.
3 | network_0/router_level3_1 | Completed switch allocation for VC 0 at input 3 (front: 7).
3 | network_0/router_level3_1 |   Scheduling switch connection from input 3.0 to output 14.0.
3 | network_0/router_level3_1 | Updating lookahead routing information for flit 7.
3 | network_0/router_level3_1 | Completed switch allocation for VC 0 at input 4 (front: 8).
3 | network_0/router_level3_1 |   Scheduling switch connection from input 4.0 to output 8.0.
3 | network_0/router_level3_1 | Updating lookahead routing information for flit 8.
3 | network_0/router_level3_1 | Completed switch allocation for VC 0 at input 5 (front: 9).
3 | network_0/router_level3_1 |   Scheduling switch connection from input 5.0 to output 13.0.
3 | network_0/router_level3_1 | Updating lookahead routing information for flit 9.
3 | network_0/router_level3_1 | Completed switch allocation for VC 0 at input 6 (front: 10).
3 | network_0/router_level3_1 |   Scheduling switch connection from input 6.0 to output 10.0.
3 | network_0/router_level3_1 | Updating lookahead routing information for flit 10.
4 | network_0/router_level3_0 | Beginning switch allocation for VC 0 at input 5 (front: 4).
4 | network_0/router_level3_0 |   Requesting output 14.0 (non-spec, pri: 0).
4 | network_0/router_level3_0/sw_allocator | Input requests = [ 0 -> [ 0@0 ]  1 -> [ 8@0 ]  2 -> [ 13@0 ]  3 -> [ 15@0 ]  4 -> [ 10@0 ]  5 -> [ 12@0 14@0 ]  ], output requests = [ 0 -> [ 0@0 ]  8 -> [ 1@0 ]  10 -> [ 4@0 ]  12 -> [ 5@0 ]  13 -> [ 2@0 ]  14 -> [ 5@0 ]  15 -> [ 3@0 ]  ].
4 | network_0/router_level3_0/sw_allocator | Input grants = [ 0 -> 0  1 -> 8  2 -> 13  3 -> 15  4 -> 10  5 -> 12  ], output grants = [ 0 -> 0  8 -> 1  10 -> 4  12 -> 5  13 -> 2  15 -> 3  ].
4 | network_0/router_level3_0 | Switch allocation failed for VC 0 at input 5: Granted to VC 1.
4 | network_0/router_level3_0 | Beginning crossbar traversal for flit 1 from input 2.0 to output 14.0.
4 | network_0/router_level3_0 | Beginning crossbar traversal for flit 2 from input 3.0 to output 9.0.
4 | network_0/router_level3_0 | Beginning crossbar traversal for flit 3 from input 4.0 to output 8.0.
4 | network_0/router_level3_0 | Completed switch allocation for VC 0 at input 5 (front: 4).
4 | network_0/router_level3_0 |   No output port allocated.
4 | network_0/router_level3_0 | Completed crossbar traversal for flit 1 from input 2.0 to output 14.0.
4 | network_0/router_level3_0 | Buffering flit 1 at output 14.
4 | network_0/router_level3_0 | Completed crossbar traversal for flit 2 from input 3.0 to output 9.0.
4 | network_0/router_level3_0 | Buffering flit 2 at output 9.
4 | network_0/router_level3_0 | Completed crossbar traversal for flit 3 from input 4.0 to output 8.0.
4 | network_0/router_level3_0 | Buffering flit 3 at output 8.
4 | network_0/router_level3_1 | Beginning crossbar traversal for flit 5 from input 0.0 to output 15.0.
4 | network_0/router_level3_1 | Beginning crossbar traversal for flit 6 from input 1.0 to output 9.0.
4 | network_0/router_level3_1 | Beginning crossbar traversal for flit 7 from input 3.0 to output 14.0.
4 | network_0/router_level3_1 | Beginning crossbar traversal for flit 8 from input 4.0 to output 8.0.
4 | network_0/router_level3_1 | Beginning crossbar traversal for flit 9 from input 5.0 to output 13.0.
4 | network_0/router_level3_1 | Beginning crossbar traversal for flit 10 from input 6.0 to output 10.0.
4 | network_0/router_level3_1 | Completed crossbar traversal for flit 5 from input 0.0 to output 15.0.
4 | network_0/router_level3_1 | Buffering flit 5 at output 15.
4 | network_0/router_level3_1 | Completed crossbar traversal for flit 6 from input 1.0 to output 9.0.
4 | network_0/router_level3_1 | Buffering flit 6 at output 9.
4 | network_0/router_level3_1 | Completed crossbar traversal for flit 7 from input 3.0 to output 14.0.
4 | network_0/router_level3_1 | Buffering flit 7 at output 14.
4 | network_0/router_level3_1 | Completed crossbar traversal for flit 8 from input 4.0 to output 8.0.
4 | network_0/router_level3_1 | Buffering flit 8 at output 8.
4 | network_0/router_level3_1 | Completed crossbar traversal for flit 9 from input 5.0 to output 13.0.
4 | network_0/router_level3_1 | Buffering flit 9 at output 13.
4 | network_0/router_level3_1 | Completed crossbar traversal for flit 10 from input 6.0 to output 10.0.
4 | network_0/router_level3_1 | Buffering flit 10 at output 10.
4 | network_0/router_level3_0 | Sending flit 3 to channel at output 8.
4 | network_0/router_level3_0 | Sending flit 2 to channel at output 9.
4 | network_0/router_level3_0 | Sending flit 1 to channel at output 14.
4 | network_0/router_level3_1 | Sending flit 8 to channel at output 8.
4 | network_0/router_level3_1 | Sending flit 6 to channel at output 9.
4 | network_0/router_level3_1 | Sending flit 10 to channel at output 10.
4 | network_0/router_level3_1 | Sending flit 9 to channel at output 13.
4 | network_0/router_level3_1 | Sending flit 7 to channel at output 14.
4 | network_0/router_level3_1 | Sending flit 5 to channel at output 15.
5 | network_0/network_0_fchan_20480 | Beginning channel traversal for flit 3 with delay 1.
5 | network_0/network_0_fchan_20481 | Beginning channel traversal for flit 2 with delay 1.
5 | network_0/network_0_fchan_20486 | Beginning channel traversal for flit 1 with delay 1.
5 | network_0/network_0_fchan_20488 | Beginning channel traversal for flit 8 with delay 1.
5 | network_0/network_0_fchan_20489 | Beginning channel traversal for flit 6 with delay 1.
5 | network_0/network_0_fchan_20490 | Beginning channel traversal for flit 10 with delay 1.
5 | network_0/network_0_fchan_20493 | Beginning channel traversal for flit 9 with delay 1.
5 | network_0/network_0_fchan_20494 | Beginning channel traversal for flit 7 with delay 1.
5 | network_0/network_0_fchan_20495 | Beginning channel traversal for flit 5 with delay 1.
5 | network_0/router_level3_0 | Beginning switch allocation for VC 0 at input 5 (front: 4).
5 | network_0/router_level3_0 |   Requesting output 14.0 (non-spec, pri: 0).
5 | network_0/router_level3_0/sw_allocator | Input requests = [ 0 -> [ 0@0 ]  2 -> [ 10@0 ]  5 -> [ 9@0 14@0 ]  7 -> [ 8@0 14@0 ]  ], output requests = [ 0 -> [ 0@0 ]  8 -> [ 7@0 ]  9 -> [ 5@0 ]  10 -> [ 2@0 ]  14 -> [ 5@0 7@0 ]  ].
5 | network_0/router_level3_0/sw_allocator | Input grants = [ 0 -> 0  2 -> 10  5 -> 14  7 -> 8  ], output grants = [ 0 -> 0  8 -> 7  10 -> 2  14 -> 5  ].
5 | network_0/router_level3_0 | Assigning output 14.0 to VC 0 at input 5.0.
5 | network_0/router_level3_0 | Completed switch allocation for VC 0 at input 5 (front: 4).
5 | network_0/router_level3_0 |   Scheduling switch connection from input 5.0 to output 14.0.
5 | network_0/router_level3_0 | Updating lookahead routing information for flit 4.
5 | network_0/network_0_fchan_20480 | Completed channel traversal for flit 3.
5 | network_0/network_0_fchan_20481 | Completed channel traversal for flit 2.
5 | network_0/network_0_fchan_20486 | Completed channel traversal for flit 1.
5 | network_0/network_0_fchan_20488 | Completed channel traversal for flit 8.
5 | network_0/network_0_fchan_20489 | Completed channel traversal for flit 6.
5 | network_0/network_0_fchan_20490 | Completed channel traversal for flit 10.
5 | network_0/network_0_fchan_20493 | Completed channel traversal for flit 9.
5 | network_0/network_0_fchan_20494 | Completed channel traversal for flit 7.
5 | network_0/network_0_fchan_20495 | Completed channel traversal for flit 5.
6 | network_0/router_level2_0 | Received flit 3 from channel at input 0.
6 | network_0/router_level2_0 | Received flit 8 from channel at input 1.
6 | network_0/router_level2_1 | Received flit 2 from channel at input 0.
6 | network_0/router_level2_1 | Received flit 6 from channel at input 1.
6 | network_0/router_level2_2 | Received flit 10 from channel at input 1.
6 | network_0/router_level2_5 | Received flit 9 from channel at input 1.
6 | network_0/router_level2_6 | Received flit 1 from channel at input 0.
6 | network_0/router_level2_6 | Received flit 7 from channel at input 1.
6 | network_0/router_level2_7 | Received flit 5 from channel at input 1.
6 | network_0/router_level2_0 | Adding flit 3 to VC 0 at input 0 (state: idle, empty).
6 | network_0/router_level2_0 | Using precomputed lookahead routing information for VC 0 at input 0 (front: 3).
6 | network_0/router_level2_0/buf_0/vc_0 | Changing state from idle to vc_alloc.
6 | network_0/router_level2_0 | Adding flit 8 to VC 0 at input 1 (state: idle, empty).
6 | network_0/router_level2_0 | Using precomputed lookahead routing information for VC 0 at input 1 (front: 8).
6 | network_0/router_level2_0/buf_1/vc_0 | Changing state from idle to vc_alloc.
6 | network_0/router_level2_0 | Beginning VC allocation for VC 0 at input 0 (front: 3).
6 | network_0/router_level2_0 |   Requesting VC 0 at output 11 (in_pri: 0, out_pri: 0).
6 | network_0/router_level2_0 |   Requesting VC 1 at output 11 (in_pri: 0, out_pri: 0).
6 | network_0/router_level2_0 |   Requesting VC 2 at output 11 (in_pri: 0, out_pri: 0).
6 | network_0/router_level2_0 |   Requesting VC 3 at output 11 (in_pri: 0, out_pri: 0).
6 | network_0/router_level2_0 | Beginning VC allocation for VC 0 at input 1 (front: 8).
6 | network_0/router_level2_0 |   Requesting VC 0 at output 12 (in_pri: 0, out_pri: 0).
6 | network_0/router_level2_0 |   Requesting VC 1 at output 12 (in_pri: 0, out_pri: 0).
6 | network_0/router_level2_0 |   Requesting VC 2 at output 12 (in_pri: 0, out_pri: 0).
6 | network_0/router_level2_0 |   Requesting VC 3 at output 12 (in_pri: 0, out_pri: 0).
6 | network_0/router_level2_0/vc_allocator | Input requests = [ 0 -> [ 44@0 45@0 46@0 47@0 ]  4 -> [ 48@0 49@0 50@0 51@0 ]  8 -> [ 56@0 57@0 58@0 59@0 ]  24 -> [ 32@0 33@0 34@0 35@0 ]  ], output requests = [ 32 -> [ 24@0 ]  33 -> [ 24@0 ]  34 -> [ 24@0 ]  35 -> [ 24@0 ]  44 -> [ 0@0 ]  45 -> [ 0@0 ]  46 -> [ 0@0 ]  47 -> [ 0@0 ]  48 -> [ 4@0 ]  49 -> [ 4@0 ]  50 -> [ 4@0 ]  51 -> [ 4@0 ]  56 -> [ 8@0 ]  57 -> [ 8@0 ]  58 -> [ 8@0 ]  59 -> [ 8@0 ]  ].
6 | network_0/router_level2_0/vc_allocator | Input grants = [ 0 -> 44  4 -> 48  8 -> 56  24 -> 32  ], output grants = [ 32 -> 24  44 -> 0  48 -> 4  56 -> 8  ].
6 | network_0/router_level2_0 | Assigning VC 0 at output 11 to VC 0 at input 0.
6 | network_0/router_level2_0 | Assigning VC 0 at output 12 to VC 0 at input 1.
6 | network_0/router_level2_0 | Completed VC allocation for VC 0 at input 0 (front: 3).
6 | network_0/router_level2_0 |   Acquiring assigned VC 0 at output 11.
6 | network_0/router_level2_0/buf_0/vc_0 | Changing state from vc_alloc to active.
6 | network_0/router_level2_0 | Completed VC allocation for VC 0 at input 1 (front: 8).
6 | network_0/router_level2_0 |   Acquiring assigned VC 0 at output 12.
6 | network_0/router_level2_0/buf_1/vc_0 | Changing state from vc_alloc to active.
6 | network_0/router_level2_1 | Adding flit 2 to VC 0 at input 0 (state: idle, empty).
6 | network_0/router_level2_1 | Using precomputed lookahead routing information for VC 0 at input 0 (front: 2).
6 | network_0/router_level2_1/buf_0/vc_0 | Changing state from idle to vc_alloc.
6 | network_0/router_level2_1 | Adding flit 6 to VC 0 at input 1 (state: idle, empty).
6 | network_0/router_level2_1 | Using precomputed lookahead routing information for VC 0 at input 1 (front: 6).
6 | network_0/router_level2_1/buf_1/vc_0 | Changing state from idle to vc_alloc.
6 | network_0/router_level2_1 | Beginning VC allocation for VC 0 at input 0 (front: 2).
6 | network_0/router_level2_1 |   Requesting VC 0 at output 11 (in_pri: 0, out_pri: 0).
6 | network_0/router_level2_1 |   Requesting VC 1 at output 11 (in_pri: 0, out_pri: 0).
6 | network_0/router_level2_1 |   Requesting VC 2 at output 11 (in_pri: 0, out_pri: 0).
6 | network_0/router_level2_1 |   Requesting VC 3 at output 11 (in_pri: 0, out_pri: 0).
6 | network_0/router_level2_1 | Beginning VC allocation for VC 0 at input 1 (front: 6).
6 | network_0/router_level2_1 |   Requesting VC 0 at output 14 (in_pri: 0, out_pri: 0).
6 | network_0/router_level2_1 |   Requesting VC 1 at output 14 (in_pri: 0, out_pri: 0).
6 | network_0/router_level2_1 |   Requesting VC 2 at output 14 (in_pri: 0, out_pri: 0).
6 | network_0/router_level2_1 |   Requesting VC 3 at output 14 (in_pri: 0, out_pri: 0).
6 | network_0/router_level2_1/vc_allocator | Input requests = [ 0 -> [ 44@0 45@0 46@0 47@0 ]  4 -> [ 56@0 57@0 58@0 59@0 ]  8 -> [ 40@0 41@0 42@0 43@0 ]  12 -> [ 36@0 37@0 38@0 39@0 ]  ], output requests = [ 36 -> [ 12@0 ]  37 -> [ 12@0 ]  38 -> [ 12@0 ]  39 -> [ 12@0 ]  40 -> [ 8@0 ]  41 -> [ 8@0 ]  42 -> [ 8@0 ]  43 -> [ 8@0 ]  44 -> [ 0@0 ]  45 -> [ 0@0 ]  46 -> [ 0@0 ]  47 -> [ 0@0 ]  56 -> [ 4@0 ]  57 -> [ 4@0 ]  58 -> [ 4@0 ]  59 -> [ 4@0 ]  ].
6 | network_0/router_level2_1/vc_allocator | Input grants = [ 0 -> 44  4 -> 56  8 -> 40  12 -> 36  ], output grants = [ 36 -> 12  40 -> 8  44 -> 0  56 -> 4  ].
6 | network_0/router_level2_1 | Assigning VC 0 at output 11 to VC 0 at input 0.
6 | network_0/router_level2_1 | Assigning VC 0 at output 14 to VC 0 at input 1.
6 | network_0/router_level2_1 | Completed VC allocation for VC 0 at input 0 (front: 2).
6 | network_0/router_level2_1 |   Acquiring assigned VC 0 at output 11.
6 | network_0/router_level2_1/buf_0/vc_0 | Changing state from vc_alloc to active.
6 | network_0/router_level2_1 | Completed VC allocation for VC 0 at input 1 (front: 6).
6 | network_0/router_level2_1 |   Acquiring assigned VC 0 at output 14.
6 | network_0/router_level2_1/buf_1/vc_0 | Changing state from vc_alloc to active.
6 | network_0/router_level2_2 | Adding flit 10 to VC 0 at input 1 (state: idle, empty).
6 | network_0/router_level2_2 | Using precomputed lookahead routing information for VC 0 at input 1 (front: 10).
6 | network_0/router_level2_2/buf_1/vc_0 | Changing state from idle to vc_alloc.
6 | network_0/router_level2_2 | Beginning VC allocation for VC 0 at input 1 (front: 10).
6 | network_0/router_level2_2 |   Requesting VC 0 at output 15 (in_pri: 0, out_pri: 0).
6 | network_0/router_level2_2 |   Requesting VC 1 at output 15 (in_pri: 0, out_pri: 0).
6 | network_0/router_level2_2 |   Requesting VC 2 at output 15 (in_pri: 0, out_pri: 0).
6 | network_0/router_level2_2 |   Requesting VC 3 at output 15 (in_pri: 0, out_pri: 0).
6 | network_0/router_level2_2/vc_allocator | Input requests = [ 4 -> [ 60@0 61@0 62@0 63@0 ]  24 -> [ 56@0 57@0 58@0 59@0 ]  ], output requests = [ 56 -> [ 24@0 ]  57 -> [ 24@0 ]  58 -> [ 24@0 ]  59 -> [ 24@0 ]  60 -> [ 4@0 ]  61 -> [ 4@0 ]  62 -> [ 4@0 ]  63 -> [ 4@0 ]  ].
6 | network_0/router_level2_2/vc_allocator | Input grants = [ 4 -> 60  24 -> 56  ], output grants = [ 56 -> 24  60 -> 4  ].
6 | network_0/router_level2_2 | Assigning VC 0 at output 15 to VC 0 at input 1.
6 | network_0/router_level2_2 | Completed VC allocation for VC 0 at input 1 (front: 10).
6 | network_0/router_level2_2 |   Acquiring assigned VC 0 at output 15.
6 | network_0/router_level2_2/buf_1/vc_0 | Changing state from vc_alloc to active.
6 | network_0/router_level2_5 | Adding flit 9 to VC 0 at input 1 (state: idle, empty).
6 | network_0/router_level2_5 | Using precomputed lookahead routing information for VC 0 at input 1 (front: 9).
6 | network_0/router_level2_5/buf_1/vc_0 | Changing state from idle to vc_alloc.
6 | network_0/router_level2_5 | Beginning VC allocation for VC 0 at input 1 (front: 9).
6 | network_0/router_level2_5 |   Requesting VC 0 at output 9 (in_pri: 0, out_pri: 0).
6 | network_0/router_level2_5 |   Requesting VC 1 at output 9 (in_pri: 0, out_pri: 0).
6 | network_0/router_level2_5 |   Requesting VC 2 at output 9 (in_pri: 0, out_pri: 0).
6 | network_0/router_level2_5 |   Requesting VC 3 at output 9 (in_pri: 0, out_pri: 0).
6 | network_0/router_level2_5/vc_allocator | Input requests = [ 4 -> [ 36@0 37@0 38@0 39@0 ]  8 -> [ 60@0 61@0 62@0 63@0 ]  12 -> [ 32@0 33@0 34@0 35@0 ]  16 -> [ 60@0 61@0 62@0 63@0 ]  20 -> [ 60@0 61@0 62@0 63@0 ]  28 -> [ 36@0 37@0 38@0 39@0 ]  ], output requests = [ 32 -> [ 12@0 ]  33 -> [ 12@0 ]  34 -> [ 12@0 ]  35 -> [ 12@0 ]  36 -> [ 4@0 28@0 ]  37 -> [ 4@0 28@0 ]  38 -> [ 4@0 28@0 ]  39 -> [ 4@0 28@0 ]  60 -> [ 8@0 16@0 20@0 ]  61 -> [ 8@0 16@0 20@0 ]  62 -> [ 8@0 16@0 20@0 ]  63 -> [ 8@0 16@0 20@0 ]  ].
6 | network_0/router_level2_5/vc_allocator | Input grants = [ 4 -> 36  8 -> 60  12 -> 32  ], output grants = [ 32 -> 12  36 -> 4  60 -> 8  ].
6 | network_0/router_level2_5 | Assigning VC 0 at output 9 to VC 0 at input 1.
6 | network_0/router_level2_5 | Completed VC allocation for VC 0 at input 1 (front: 9).
6 | network_0/router_level2_5 |   Acquiring assigned VC 0 at output 9.
6 | network_0/router_level2_5/buf_1/vc_0 | Changing state from vc_alloc to active.
6 | network_0/router_level2_6 | Adding flit 1 to VC 0 at input 0 (state: idle, empty).
6 | network_0/router_level2_6 | Using precomputed lookahead routing information for VC 0 at input 0 (front: 1).
6 | network_0/router_level2_6/buf_0/vc_0 | Changing state from idle to vc_alloc.
6 | network_0/router_level2_6 | Adding flit 7 to VC 0 at input 1 (state: idle, empty).
6 | network_0/router_level2_6 | Using precomputed lookahead routing information for VC 0 at input 1 (front: 7).
6 | network_0/router_level2_6/buf_1/vc_0 | Changing state from idle to vc_alloc.
6 | network_0/router_level2_6 | Beginning VC allocation for VC 0 at input 0 (front: 1).
6 | network_0/router_level2_6 |   Requesting VC 0 at output 14 (in_pri: 0, out_pri: 0).
6 | network_0/router_level2_6 |   Requesting VC 1 at output 14 (in_pri: 0, out_pri: 0).
6 | network_0/router_level2_6 |   Requesting VC 2 at output 14 (in_pri: 0, out_pri: 0).
6 | network_0/router_level2_6 |   Requesting VC 3 at output 14 (in_pri: 0, out_pri: 0).
6 | network_0/router_level2_6 | Beginning VC allocation for VC 0 at input 1 (front: 7).
6 | network_0/router_level2_6 |   Requesting VC 0 at output 15 (in_pri: 0, out_pri: 0).
6 | network_0/router_level2_6 |   Requesting VC 1 at output 15 (in_pri: 0, out_pri: 0).
6 | network_0/router_level2_6 |   Requesting VC 2 at output 15 (in_pri: 0, out_pri: 0).
6 | network_0/router_level2_6 |   Requesting VC 3 at output 15 (in_pri: 0, out_pri: 0).
6 | network_0/router_level2_6/vc_allocator | Input requests = [ 0 -> [ 56@0 57@0 58@0 59@0 ]  4 -> [ 60@0 61@0 62@0 63@0 ]  8 -> [ 60@0 61@0 62@0 63@0 ]  12 -> [ 52@0 53@0 54@0 55@0 ]  20 -> [ 48@0 49@0 50@0 51@0 ]  24 -> [ 52@0 53@0 54@0 55@0 ]  28 -> [ 52@0 53@0 54@0 55@0 ]  ], output requests = [ 48 -> [ 20@0 ]  49 -> [ 20@0 ]  50 -> [ 20@0 ]  51 -> [ 20@0 ]  52 -> [ 12@0 24@0 28@0 ]  53 -> [ 12@0 24@0 28@0 ]  54 -> [ 12@0 24@0 28@0 ]  55 -> [ 12@0 24@0 28@0 ]  56 -> [ 0@0 ]  57 -> [ 0@0 ]  58 -> [ 0@0 ]  59 -> [ 0@0 ]  60 -> [ 4@0 8@0 ]  61 -> [ 4@0 8@0 ]  62 -> [ 4@0 8@0 ]  63 -> [ 4@0 8@0 ]  ].
6 | network_0/router_level2_6/vc_allocator | Input grants = [ 0 -> 56  4 -> 60  12 -> 52  20 -> 48  ], output grants = [ 48 -> 20  52 -> 12  56 -> 0  60 -> 4  ].
6 | network_0/router_level2_6 | Assigning VC 0 at output 14 to VC 0 at input 0.
6 | network_0/router_level2_6 | Assigning VC 0 at output 15 to VC 0 at input 1.
6 | network_0/router_level2_6 | Completed VC allocation for VC 0 at input 0 (front: 1).
6 | network_0/router_level2_6 |   Acquiring assigned VC 0 at output 14.
6 | network_0/router_level2_6/buf_0/vc_0 | Changing state from vc_alloc to active.
6 | network_0/router_level2_6 | Completed VC allocation for VC 0 at input 1 (front: 7).
6 | network_0/router_level2_6 |   Acquiring assigned VC 0 at output 15.
6 | network_0/router_level2_6/buf_1/vc_0 | Changing state from vc_alloc to active.
6 | network_0/router_level2_7 | Adding flit 5 to VC 0 at input 1 (state: idle, empty).
6 | network_0/router_level2_7 | Using precomputed lookahead routing information for VC 0 at input 1 (front: 5).
6 | network_0/router_level2_7/buf_1/vc_0 | Changing state from idle to vc_alloc.
6 | network_0/router_level2_7 | Beginning VC allocation for VC 0 at input 1 (front: 5).
6 | network_0/router_level2_7 |   Requesting VC 0 at output 13 (in_pri: 0, out_pri: 0).
6 | network_0/router_level2_7 |   Requesting VC 1 at output 13 (in_pri: 0, out_pri: 0).
6 | network_0/router_level2_7 |   Requesting VC 2 at output 13 (in_pri: 0, out_pri: 0).
6 | network_0/router_level2_7 |   Requesting VC 3 at output 13 (in_pri: 0, out_pri: 0).
6 | network_0/router_level2_7/vc_allocator | Input requests = [ 0 -> [ 60@0 61@0 62@0 63@0 ]  4 -> [ 52@0 53@0 54@0 55@0 ]  20 -> [ 36@0 37@0 38@0 39@0 ]  24 -> [ 44@0 45@0 46@0 47@0 ]  28 -> [ 32@0 33@0 34@0 35@0 ]  ], output requests = [ 32 -> [ 28@0 ]  33 -> [ 28@0 ]  34 -> [ 28@0 ]  35 -> [ 28@0 ]  36 -> [ 20@0 ]  37 -> [ 20@0 ]  38 -> [ 20@0 ]  39 -> [ 20@0 ]  44 -> [ 24@0 ]  45 -> [ 24@0 ]  46 -> [ 24@0 ]  47 -> [ 24@0 ]  52 -> [ 4@0 ]  53 -> [ 4@0 ]  54 -> [ 4@0 ]  55 -> [ 4@0 ]  60 -> [ 0@0 ]  61 -> [ 0@0 ]  62 -> [ 0@0 ]  63 -> [ 0@0 ]  ].
6 | network_0/router_level2_7/vc_allocator | Input grants = [ 0 -> 60  4 -> 52  20 -> 36  24 -> 44  28 -> 32  ], output grants = [ 32 -> 28  36 -> 20  44 -> 24  52 -> 4  60 -> 0  ].
6 | network_0/router_level2_7 | Assigning VC 0 at output 13 to VC 0 at input 1.
6 | network_0/router_level2_7 | Completed VC allocation for VC 0 at input 1 (front: 5).
6 | network_0/router_level2_7 |   Acquiring assigned VC 0 at output 13.
6 | network_0/router_level2_7/buf_1/vc_0 | Changing state from vc_alloc to active.
6 | network_0/router_level3_0 | Beginning crossbar traversal for flit 4 from input 5.0 to output 14.0.
6 | network_0/router_level3_0 | Completed crossbar traversal for flit 4 from input 5.0 to output 14.0.
6 | network_0/router_level3_0 | Buffering flit 4 at output 14.
6 | network_0/router_level3_0 | Sending flit 4 to channel at output 14.
7 | network_0/network_0_fchan_20486 | Beginning channel traversal for flit 4 with delay 1.
7 | network_0/router_level2_0 | Beginning switch allocation for VC 0 at input 0 (front: 3).
7 | network_0/router_level2_0 |   Requesting output 11.0 (non-spec, pri: 0).
7 | network_0/router_level2_0 | Beginning switch allocation for VC 0 at input 1 (front: 8).
7 | network_0/router_level2_0 |   Requesting output 12.0 (non-spec, pri: 0).
7 | network_0/router_level2_0/sw_allocator | Input requests = [ 0 -> [ 11@0 ]  1 -> [ 12@0 ]  2 -> [ 14@0 ]  6 -> [ 8@0 ]  ], output requests = [ 8 -> [ 6@0 ]  11 -> [ 0@0 ]  12 -> [ 1@0 ]  14 -> [ 2@0 ]  ].
7 | network_0/router_level2_0/sw_allocator | Input grants = [ 0 -> 11  1 -> 12  2 -> 14  6 -> 8  ], output grants = [ 8 -> 6  11 -> 0  12 -> 1  14 -> 2  ].
7 | network_0/router_level2_0 | Assigning output 11.0 to VC 0 at input 0.0.
7 | network_0/router_level2_0 | Assigning output 12.0 to VC 0 at input 1.0.
7 | network_0/router_level2_0 | Completed switch allocation for VC 0 at input 0 (front: 3).
7 | network_0/router_level2_0 |   Scheduling switch connection from input 0.0 to output 11.0.
7 | network_0/router_level2_0 | Updating lookahead routing information for flit 3.
7 | network_0/router_level2_0 | Completed switch allocation for VC 0 at input 1 (front: 8).
7 | network_0/router_level2_0 |   Scheduling switch connection from input 1.0 to output 12.0.
7 | network_0/router_level2_0 | Updating lookahead routing information for flit 8.
7 | network_0/router_level2_1 | Beginning switch allocation for VC 0 at input 0 (front: 2).
7 | network_0/router_level2_1 |   Requesting output 11.0 (non-spec, pri: 0).
7 | network_0/router_level2_1 | Beginning switch allocation for VC 0 at input 1 (front: 6).
7 | network_0/router_level2_1 |   Requesting output 14.0 (non-spec, pri: 0).
7 | network_0/router_level2_1/sw_allocator | Input requests = [ 0 -> [ 11@0 ]  1 -> [ 14@0 ]  2 -> [ 10@0 ]  3 -> [ 9@0 ]  ], output requests = [ 9 -> [ 3@0 ]  10 -> [ 2@0 ]  11 -> [ 0@0 ]  14 -> [ 1@0 ]  ].
7 | network_0/router_level2_1/sw_allocator | Input grants = [ 0 -> 11  1 -> 14  2 -> 10  3 -> 9  ], output grants = [ 9 -> 3  10 -> 2  11 -> 0  14 -> 1  ].
7 | network_0/router_level2_1 | Assigning output 11.0 to VC 0 at input 0.0.
7 | network_0/router_level2_1 | Assigning output 14.0 to VC 0 at input 1.0.
7 | network_0/router_level2_1 | Completed switch allocation for VC 0 at input 0 (front: 2).
7 | network_0/router_level2_1 |   Scheduling switch connection from input 0.0 to output 11.0.
7 | network_0/router_level2_1 | Updating lookahead routing information for flit 2.
7 | network_0/router_level2_1 | Completed switch allocation for VC 0 at input 1 (front: 6).
7 | network_0/router_level2_1 |   Scheduling switch connection from input 1.0 to output 14.0.
7 | network_0/router_level2_1 | Updating lookahead routing information for flit 6.
7 | network_0/router_level2_2 | Beginning switch allocation for VC 0 at input 1 (front: 10).
7 | network_0/router_level2_2 |   Requesting output 15.0 (non-spec, pri: 0).
7 | network_0/router_level2_2/sw_allocator | Input requests = [ 1 -> [ 15@0 ]  6 -> [ 14@0 ]  ], output requests = [ 14 -> [ 6@0 ]  15 -> [ 1@0 ]  ].
7 | network_0/router_level2_2/sw_allocator | Input grants = [ 1 -> 15  6 -> 14  ], output grants = [ 14 -> 6  15 -> 1  ].
7 | network_0/router_level2_2 | Assigning output 15.0 to VC 0 at input 1.0.
7 | network_0/router_level2_2 | Completed switch allocation for VC 0 at input 1 (front: 10).
7 | network_0/router_level2_2 |   Scheduling switch connection from input 1.0 to output 15.0.
7 | network_0/router_level2_2 | Updating lookahead routing information for flit 10.
7 | network_0/router_level2_5 | Beginning switch allocation for VC 0 at input 1 (front: 9).
7 | network_0/router_level2_5 |   Requesting output 9.0 (non-spec, pri: 0).
7 | network_0/router_level2_5/sw_allocator | Input requests = [ 1 -> [ 9@0 ]  2 -> [ 15@0 ]  3 -> [ 8@0 ]  ], output requests = [ 8 -> [ 3@0 ]  9 -> [ 1@0 ]  15 -> [ 2@0 ]  ].
7 | network_0/router_level2_5/sw_allocator | Input grants = [ 1 -> 9  2 -> 15  3 -> 8  ], output grants = [ 8 -> 3  9 -> 1  15 -> 2  ].
7 | network_0/router_level2_5 | Assigning output 9.0 to VC 0 at input 1.0.
7 | network_0/router_level2_5 | Completed switch allocation for VC 0 at input 1 (front: 9).
7 | network_0/router_level2_5 |   Scheduling switch connection from input 1.0 to output 9.0.
7 | network_0/router_level2_5 | Updating lookahead routing information for flit 9.
7 | network_0/router_level2_6 | Beginning switch allocation for VC 0 at input 0 (front: 1).
7 | network_0/router_level2_6 |   Requesting output 14.0 (non-spec, pri: 0).
7 | network_0/router_level2_6 | Beginning switch allocation for VC 0 at input 1 (front: 7).
7 | network_0/router_level2_6 |   Requesting output 15.0 (non-spec, pri: 0).
7 | network_0/router_level2_6/sw_allocator | Input requests = [ 0 -> [ 14@0 ]  1 -> [ 15@0 ]  3 -> [ 13@0 ]  5 -> [ 12@0 ]  ], output requests = [ 12 -> [ 5@0 ]  13 -> [ 3@0 ]  14 -> [ 0@0 ]  15 -> [ 1@0 ]  ].
7 | network_0/router_level2_6/sw_allocator | Input grants = [ 0 -> 14  1 -> 15  3 -> 13  5 -> 12  ], output grants = [ 12 -> 5  13 -> 3  14 -> 0  15 -> 1  ].
7 | network_0/router_level2_6 | Assigning output 14.0 to VC 0 at input 0.0.
7 | network_0/router_level2_6 | Assigning output 15.0 to VC 0 at input 1.0.
7 | network_0/router_level2_6 | Completed switch allocation for VC 0 at input 0 (front: 1).
7 | network_0/router_level2_6 |   Scheduling switch connection from input 0.0 to output 14.0.
7 | network_0/router_level2_6 | Updating lookahead routing information for flit 1.
7 | network_0/router_level2_6 | Completed switch allocation for VC 0 at input 1 (front: 7).
7 | network_0/router_level2_6 |   Scheduling switch connection from input 1.0 to output 15.0.
7 | network_0/router_level2_6 | Updating lookahead routing information for flit 7.
7 | network_0/router_level2_7 | Beginning switch allocation for VC 0 at input 1 (front: 5).
7 | network_0/router_level2_7 |   Requesting output 13.0 (non-spec, pri: 0).
7 | network_0/router_level2_7/sw_allocator | Input requests = [ 0 -> [ 15@0 ]  1 -> [ 13@0 ]  5 -> [ 9@0 ]  6 -> [ 11@0 ]  7 -> [ 8@0 ]  ], output requests = [ 8 -> [ 7@0 ]  9 -> [ 5@0 ]  11 -> [ 6@0 ]  13 -> [ 1@0 ]  15 -> [ 0@0 ]  ].
7 | network_0/router_level2_7/sw_allocator | Input grants = [ 0 -> 15  1 -> 13  5 -> 9  6 -> 11  7 -> 8  ], output grants = [ 8 -> 7  9 -> 5  11 -> 6  13 -> 1  15 -> 0  ].
7 | network_0/router_level2_7 | Assigning output 13.0 to VC 0 at input 1.0.
7 | network_0/router_level2_7 | Completed switch allocation for VC 0 at input 1 (front: 5).
7 | network_0/router_level2_7 |   Scheduling switch connection from input 1.0 to output 13.0.
7 | network_0/router_level2_7 | Updating lookahead routing information for flit 5.
7 | network_0/network_0_fchan_20486 | Completed channel traversal for flit 4.
8 | network_0/router_level2_6 | Received flit 4 from channel at input 0.
8 | network_0/router_level2_0 | Beginning crossbar traversal for flit 3 from input 0.0 to output 11.0.
8 | network_0/router_level2_0 | Beginning crossbar traversal for flit 8 from input 1.0 to output 12.0.
8 | network_0/router_level2_0 | Completed crossbar traversal for flit 3 from input 0.0 to output 11.0.
8 | network_0/router_level2_0 | Buffering flit 3 at output 11.
8 | network_0/router_level2_0 | Completed crossbar traversal for flit 8 from input 1.0 to output 12.0.
8 | network_0/router_level2_0 | Buffering flit 8 at output 12.
8 | network_0/router_level2_1 | Beginning crossbar traversal for flit 2 from input 0.0 to output 11.0.
8 | network_0/router_level2_1 | Beginning crossbar traversal for flit 6 from input 1.0 to output 14.0.
8 | network_0/router_level2_1 | Completed crossbar traversal for flit 2 from input 0.0 to output 11.0.
8 | network_0/router_level2_1 | Buffering flit 2 at output 11.
8 | network_0/router_level2_1 | Completed crossbar traversal for flit 6 from input 1.0 to output 14.0.
8 | network_0/router_level2_1 | Buffering flit 6 at output 14.
8 | network_0/router_level2_2 | Beginning crossbar traversal for flit 10 from input 1.0 to output 15.0.
8 | network_0/router_level2_2 | Completed crossbar traversal for flit 10 from input 1.0 to output 15.0.
8 | network_0/router_level2_2 | Buffering flit 10 at output 15.
8 | network_0/router_level2_5 | Beginning crossbar traversal for flit 9 from input 1.0 to output 9.0.
8 | network_0/router_level2_5 | Completed crossbar traversal for flit 9 from input 1.0 to output 9.0.
8 | network_0/router_level2_5 | Buffering flit 9 at output 9.
8 | network_0/router_level2_6 | Adding flit 4 to VC 1 at input 0 (state: idle, empty).
8 | network_0/router_level2_6 | Using precomputed lookahead routing information for VC 1 at input 0 (front: 4).
8 | network_0/router_level2_6/buf_0/vc_1 | Changing state from idle to vc_alloc.
8 | network_0/router_level2_6 | Beginning VC allocation for VC 1 at input 0 (front: 4).
8 | network_0/router_level2_6 |   Requesting VC 0 at output 15 (in_pri: 0, out_pri: 0).
8 | network_0/router_level2_6 |   VC 1 at output 15 is in use by VC 0 at input 2 (front flit: 18).
8 | network_0/router_level2_6 |   Requesting VC 2 at output 15 (in_pri: 0, out_pri: 0).
8 | network_0/router_level2_6 |   Requesting VC 3 at output 15 (in_pri: 0, out_pri: 0).
8 | network_0/router_level2_6/vc_allocator | Input requests = [ 1 -> [ 60@0 62@0 63@0 ]  4 -> [ 52@0 54@0 55@0 ]  12 -> [ 36@0 37@0 38@0 39@0 ]  17 -> [ 56@0 57@0 58@0 59@0 ]  28 -> [ 52@0 54@0 55@0 ]  ], output requests = [ 36 -> [ 12@0 ]  37 -> [ 12@0 ]  38 -> [ 12@0 ]  39 -> [ 12@0 ]  52 -> [ 4@0 28@0 ]  54 -> [ 4@0 28@0 ]  55 -> [ 4@0 28@0 ]  56 -> [ 17@0 ]  57 -> [ 17@0 ]  58 -> [ 17@0 ]  59 -> [ 17@0 ]  60 -> [ 1@0 ]  62 -> [ 1@0 ]  63 -> [ 1@0 ]  ].
8 | network_0/router_level2_6/vc_allocator | Input grants = [ 1 -> 60  12 -> 36  17 -> 56  28 -> 52  ], output grants = [ 36 -> 12  52 -> 28  56 -> 17  60 -> 1  ].
8 | network_0/router_level2_6 | Assigning VC 0 at output 15 to VC 1 at input 0.
8 | network_0/router_level2_6 | Beginning crossbar traversal for flit 1 from input 0.0 to output 14.0.
8 | network_0/router_level2_6 | Beginning crossbar traversal for flit 7 from input 1.0 to output 15.0.
8 | network_0/router_level2_6 | Completed VC allocation for VC 1 at input 0 (front: 4).
8 | network_0/router_level2_6 |   Acquiring assigned VC 0 at output 15.
8 | network_0/router_level2_6/buf_0/vc_1 | Changing state from vc_alloc to active.
8 | network_0/router_level2_6 | Completed crossbar traversal for flit 1 from input 0.0 to output 14.0.
8 | network_0/router_level2_6 | Buffering flit 1 at output 14.
8 | network_0/router_level2_6 | Completed crossbar traversal for flit 7 from input 1.0 to output 15.0.
8 | network_0/router_level2_6 | Buffering flit 7 at output 15.
8 | network_0/router_level2_7 | Beginning crossbar traversal for flit 5 from input 1.0 to output 13.0.
8 | network_0/router_level2_7 | Completed crossbar traversal for flit 5 from input 1.0 to output 13.0.
8 | network_0/router_level2_7 | Buffering flit 5 at output 13.
8 | network_0/router_level2_0 | Sending flit 3 to channel at output 11.
8 | network_0/router_level2_0 | Sending flit 8 to channel at output 12.
8 | network_0/router_level2_1 | Sending flit 2 to channel at output 11.
8 | network_0/router_level2_1 | Sending flit 6 to channel at output 14.
8 | network_0/router_level2_2 | Sending flit 10 to channel at output 15.
8 | network_0/router_level2_5 | Sending flit 9 to channel at output 9.
8 | network_0/router_level2_6 | Sending flit 1 to channel at output 14.
8 | network_0/router_level2_6 | Sending flit 7 to channel at output 15.
8 | network_0/router_level2_7 | Sending flit 5 to channel at output 13.
9 | network_0/network_0_fchan_12291 | Beginning channel traversal for flit 3 with delay 1.
9 | network_0/network_0_fchan_12292 | Beginning channel traversal for flit 8 with delay 1.
9 | network_0/network_0_fchan_12299 | Beginning channel traversal for flit 2 with delay 1.
9 | network_0/network_0_fchan_12302 | Beginning channel traversal for flit 6 with delay 1.
9 | network_0/network_0_fchan_12311 | Beginning channel traversal for flit 10 with delay 1.
9 | network_0/network_0_fchan_12329 | Beginning channel traversal for flit 9 with delay 1.
9 | network_0/network_0_fchan_12342 | Beginning channel traversal for flit 1 with delay 1.
9 | network_0/network_0_fchan_12343 | Beginning channel traversal for flit 7 with delay 1.
9 | network_0/network_0_fchan_12349 | Beginning channel traversal for flit 5 with delay 1.
9 | network_0/router_level2_6 | Beginning switch allocation for VC 1 at input 0 (front: 4).
9 | network_0/router_level2_6 |   Requesting output 15.0 (non-spec, pri: 0).
9 | network_0/router_level2_6/sw_allocator | Input requests = [ 0 -> [ 15@0 ]  3 -> [ 9@0 ]  4 -> [ 14@0 ]  6 -> [ 13@0 ]  7 -> [ 13@0 ]  ], output requests = [ 9 -> [ 3@0 ]  13 -> [ 6@0 7@0 ]  14 -> [ 4@0 ]  15 -> [ 0@0 ]  ].
9 | network_0/router_level2_6/sw_allocator | Input grants = [ 0 -> 15  3 -> 9  4 -> 14  6 -> 13  ], output grants = [ 9 -> 3  13 -> 6  14 -> 4  15 -> 0  ].
9 | network_0/router_level2_6 | Assigning output 15.0 to VC 1 at input 0.0.
9 | network_0/router_level2_6 | Completed switch allocation for VC 1 at input 0 (front: 4).
9 | network_0/router_level2_6 |   Scheduling switch connection from input 0.0 to output 15.0.
9 | network_0/router_level2_6 | Updating lookahead routing information for flit 4.
9 | network_0/network_0_fchan_12291 | Completed channel traversal for flit 3.
9 | network_0/network_0_fchan_12292 | Completed channel traversal for flit 8.
9 | network_0/network_0_fchan_12299 | Completed channel traversal for flit 2.
9 | network_0/network_0_fchan_12302 | Completed channel traversal for flit 6.
9 | network_0/network_0_fchan_12311 | Completed channel traversal for flit 10.
9 | network_0/network_0_fchan_12329 | Completed channel traversal for flit 9.
9 | network_0/network_0_fchan_12342 | Completed channel traversal for flit 1.
9 | network_0/network_0_fchan_12343 | Completed channel traversal for flit 7.
9 | network_0/network_0_fchan_12349 | Completed channel traversal for flit 5.
10 | network_0/router_level1_13 | Received flit 9 from channel at input 0.
10 | network_0/router_level1_24 | Received flit 3 from channel at input 0.
10 | network_0/router_level1_25 | Received flit 2 from channel at input 0.
10 | network_0/router_level1_32 | Received flit 8 from channel at input 0.
10 | network_0/router_level1_47 | Received flit 5 from channel at input 0.
10 | network_0/router_level1_49 | Received flit 6 from channel at input 0.
10 | network_0/router_level1_54 | Received flit 1 from channel at input 0.
10 | network_0/router_level1_58 | Received flit 10 from channel at input 0.
10 | network_0/router_level1_62 | Received flit 7 from channel at input 0.
10 | network_0/router_level1_13 | Adding flit 9 to VC 0 at input 0 (state: idle, empty).
10 | network_0/router_level1_13 | Using precomputed lookahead routing information for VC 0 at input 0 (front: 9).
10 | network_0/router_level1_13/buf_0/vc_0 | Changing state from idle to vc_alloc.
10 | network_0/router_level1_13 | Beginning VC allocation for VC 0 at input 0 (front: 9).
10 | network_0/router_level1_13 |   Requesting VC 0 at output 14 (in_pri: 0, out_pri: 0).
10 | network_0/router_level1_13 |   Requesting VC 1 at output 14 (in_pri: 0, out_pri: 0).
10 | network_0/router_level1_13 |   Requesting VC 2 at output 14 (in_pri: 0, out_pri: 0).
10 | network_0/router_level1_13 |   Requesting VC 3 at output 14 (in_pri: 0, out_pri: 0).
10 | network_0/router_level1_13/vc_allocator | Input requests = [ 0 -> [ 56@0 57@0 58@0 59@0 ]  4 -> [ 32@0 33@0 34@0 35@0 ]  8 -> [ 56@0 57@0 58@0 59@0 ]  16 -> [ 52@0 53@0 54@0 55@0 ]  28 -> [ 56@0 57@0 58@0 59@0 ]  ], output requests = [ 32 -> [ 4@0 ]  33 -> [ 4@0 ]  34 -> [ 4@0 ]  35 -> [ 4@0 ]  52 -> [ 16@0 ]  53 -> [ 16@0 ]  54 -> [ 16@0 ]  55 -> [ 16@0 ]  56 -> [ 0@0 8@0 28@0 ]  57 -> [ 0@0 8@0 28@0 ]  58 -> [ 0@0 8@0 28@0 ]  59 -> [ 0@0 8@0 28@0 ]  ].
10 | network_0/router_level1_13/vc_allocator | Input grants = [ 0 -> 56  4 -> 32  16 -> 52  ], output grants = [ 32 -> 4  52 -> 16  56 -> 0  ].
10 | network_0/router_level1_13 | Assigning VC 0 at output 14 to VC 0 at input 0.
10 | network_0/router_level1_13 | Completed VC allocation for VC 0 at input 0 (front: 9).
10 | network_0/router_level1_13 |   Acquiring assigned VC 0 at output 14.
10 | network_0/router_level1_13/buf_0/vc_0 | Changing state from vc_alloc to active.
10 | network_0/router_level1_24 | Adding flit 3 to VC 0 at input 0 (state: idle, empty).
10 | network_0/router_level1_24 | Using precomputed lookahead routing information for VC 0 at input 0 (front: 3).
10 | network_0/router_level1_24/buf_0/vc_0 | Changing state from idle to vc_alloc.
10 | network_0/router_level1_24 | Beginning VC allocation for VC 0 at input 0 (front: 3).
10 | network_0/router_level1_24 |   Requesting VC 0 at output 4 (in_pri: 0, out_pri: 0).
10 | network_0/router_level1_24 |   Requesting VC 1 at output 4 (in_pri: 0, out_pri: 0).
10 | network_0/router_level1_24 |   Requesting VC 2 at output 4 (in_pri: 0, out_pri: 0).
10 | network_0/router_level1_24 |   Requesting VC 3 at output 4 (in_pri: 0, out_pri: 0).
10 | network_0/router_level1_24/vc_allocator | Input requests = [ 0 -> [ 16@0 17@0 18@0 19@0 ]  12 -> [ 60@0 61@0 62@0 63@0 ]  16 -> [ 40@0 41@0 42@0 43@0 ]  20 -> [ 48@0 49@0 50@0 51@0 ]  28 -> [ 32@0 33@0 34@0 35@0 ]  ], output requests = [ 16 -> [ 0@0 ]  17 -> [ 0@0 ]  18 -> [ 0@0 ]  19 -> [ 0@0 ]  32 -> [ 28@0 ]  33 -> [ 28@0 ]  34 -> [ 28@0 ]  35 -> [ 28@0 ]  40 -> [ 16@0 ]  41 -> [ 16@0 ]  42 -> [ 16@0 ]  43 -> [ 16@0 ]  48 -> [ 20@0 ]  49 -> [ 20@0 ]  50 -> [ 20@0 ]  51 -> [ 20@0 ]  60 -> [ 12@0 ]  61 -> [ 12@0 ]  62 -> [ 12@0 ]  63 -> [ 12@0 ]  ].
10 | network_0/router_level1_24/vc_allocator | Input grants = [ 0 -> 16  12 -> 60  16 -> 40  20 -> 48  28 -> 32  ], output grants = [ 16 -> 0  32 -> 28  40 -> 16  48 -> 20  60 -> 12  ].
10 | network_0/router_level1_24 | Assigning VC 0 at output 4 to VC 0 at input 0.
10 | network_0/router_level1_24 | Completed VC allocation for VC 0 at input 0 (front: 3).
10 | network_0/router_level1_24 |   Acquiring assigned VC 0 at output 4.
10 | network_0/router_level1_24/buf_0/vc_0 | Changing state from vc_alloc to active.
10 | network_0/router_level1_25 | Adding flit 2 to VC 0 at input 0 (state: idle, empty).
10 | network_0/router_level1_25 | Using precomputed lookahead routing information for VC 0 at input 0 (front: 2).
10 | network_0/router_level1_25/buf_0/vc_0 | Changing state from idle to vc_alloc.
10 | network_0/router_level1_25 | Beginning VC allocation for VC 0 at input 0 (front: 2).
10 | network_0/router_level1_25 |   Requesting VC 0 at output 3 (in_pri: 0, out_pri: 0).
10 | network_0/router_level1_25 |   Requesting VC 1 at output 3 (in_pri: 0, out_pri: 0).
10 | network_0/router_level1_25 |   Requesting VC 2 at output 3 (in_pri: 0, out_pri: 0).
10 | network_0/router_level1_25 |   Requesting VC 3 at output 3 (in_pri: 0, out_pri: 0).
10 | network_0/router_level1_25/vc_allocator | Input requests = [ 0 -> [ 12@0 13@0 14@0 15@0 ]  4 -> [ 36@0 37@0 38@0 39@0 ]  20 -> [ 60@0 61@0 62@0 63@0 ]  24 -> [ 44@0 45@0 46@0 47@0 ]  ], output requests = [ 12 -> [ 0@0 ]  13 -> [ 0@0 ]  14 -> [ 0@0 ]  15 -> [ 0@0 ]  36 -> [ 4@0 ]  37 -> [ 4@0 ]  38 -> [ 4@0 ]  39 -> [ 4@0 ]  44 -> [ 24@0 ]  45 -> [ 24@0 ]  46 -> [ 24@0 ]  47 -> [ 24@0 ]  60 -> [ 20@0 ]  61 -> [ 20@0 ]  62 -> [ 20@0 ]  63 -> [ 20@0 ]  ].
10 | network_0/router_level1_25/vc_allocator | Input grants = [ 0 -> 12  4 -> 36  20 -> 60  24 -> 44  ], output grants = [ 12 -> 0  36 -> 4  44 -> 24  60 -> 20  ].
10 | network_0/router_level1_25 | Assigning VC 0 at output 3 to VC 0 at input 0.
10 | network_0/router_level1_25 | Completed VC allocation for VC 0 at input 0 (front: 2).
10 | network_0/router_level1_25 |   Acquiring assigned VC 0 at output 3.
10 | network_0/router_level1_25/buf_0/vc_0 | Changing state from vc_alloc to active.
10 | network_0/router_level1_32 | Adding flit 8 to VC 0 at input 0 (state: idle, empty).
10 | network_0/router_level1_32 | Using precomputed lookahead routing information for VC 0 at input 0 (front: 8).
10 | network_0/router_level1_32/buf_0/vc_0 | Changing state from idle to vc_alloc.
10 | network_0/router_level1_32 | Beginning VC allocation for VC 0 at input 0 (front: 8).
10 | network_0/router_level1_32 |   Requesting VC 0 at output 10 (in_pri: 0, out_pri: 0).
10 | network_0/router_level1_32 |   Requesting VC 1 at output 10 (in_pri: 0, out_pri: 0).
10 | network_0/router_level1_32 |   Requesting VC 2 at output 10 (in_pri: 0, out_pri: 0).
10 | network_0/router_level1_32 |   Requesting VC 3 at output 10 (in_pri: 0, out_pri: 0).
10 | network_0/router_level1_32/vc_allocator | Input requests = [ 0 -> [ 40@0 41@0 42@0 43@0 ]  8 -> [ 36@0 37@0 38@0 39@0 ]  12 -> [ 20@0 21@0 22@0 23@0 ]  16 -> [ 60@0 61@0 62@0 63@0 ]  24 -> [ 32@0 33@0 34@0 35@0 ]  ], output requests = [ 20 -> [ 12@0 ]  21 -> [ 12@0 ]  22 -> [ 12@0 ]  23 -> [ 12@0 ]  32 -> [ 24@0 ]  33 -> [ 24@0 ]  34 -> [ 24@0 ]  35 -> [ 24@0 ]  36 -> [ 8@0 ]  37 -> [ 8@0 ]  38 -> [ 8@0 ]  39 -> [ 8@0 ]  40 -> [ 0@0 ]  41 -> [ 0@0 ]  42 -> [ 0@0 ]  43 -> [ 0@0 ]  60 -> [ 16@0 ]  61 -> [ 16@0 ]  62 -> [ 16@0 ]  63 -> [ 16@0 ]  ].
10 | network_0/router_level1_32/vc_allocator | Input grants = [ 0 -> 40  8 -> 36  12 -> 20  16 -> 60  24 -> 32  ], output grants = [ 20 -> 12  32 -> 24  36 -> 8  40 -> 0  60 -> 16  ].
10 | network_0/router_level1_32 | Assigning VC 0 at output 10 to VC 0 at input 0.
10 | network_0/router_level1_32 | Completed VC allocation for VC 0 at input 0 (front: 8).
10 | network_0/router_level1_32 |   Acquiring assigned VC 0 at output 10.
10 | network_0/router_level1_32/buf_0/vc_0 | Changing state from vc_alloc to active.
10 | network_0/router_level1_47 | Adding flit 5 to VC 0 at input 0 (state: idle, empty).
10 | network_0/router_level1_47 | Using precomputed lookahead routing information for VC 0 at input 0 (front: 5).
10 | network_0/router_level1_47/buf_0/vc_0 | Changing state from idle to vc_alloc.
10 | network_0/router_level1_47 | Beginning VC allocation for VC 0 at input 0 (front: 5).
10 | network_0/router_level1_47 |   Requesting VC 0 at output 13 (in_pri: 0, out_pri: 0).
10 | network_0/router_level1_47 |   Requesting VC 1 at output 13 (in_pri: 0, out_pri: 0).
10 | network_0/router_level1_47 |   Requesting VC 2 at output 13 (in_pri: 0, out_pri: 0).
10 | network_0/router_level1_47 |   Requesting VC 3 at output 13 (in_pri: 0, out_pri: 0).
10 | network_0/router_level1_47/vc_allocator | Input requests = [ 0 -> [ 52@0 53@0 54@0 55@0 ]  16 -> [ 56@0 57@0 58@0 59@0 ]  ], output requests = [ 52 -> [ 0@0 ]  53 -> [ 0@0 ]  54 -> [ 0@0 ]  55 -> [ 0@0 ]  56 -> [ 16@0 ]  57 -> [ 16@0 ]  58 -> [ 16@0 ]  59 -> [ 16@0 ]  ].
10 | network_0/router_level1_47/vc_allocator | Input grants = [ 0 -> 52  16 -> 56  ], output grants = [ 52 -> 0  56 -> 16  ].
10 | network_0/router_level1_47 | Assigning VC 0 at output 13 to VC 0 at input 0.
10 | network_0/router_level1_47 | Completed VC allocation for VC 0 at input 0 (front: 5).
10 | network_0/router_level1_47 |   Acquiring assigned VC 0 at output 13.
10 | network_0/router_level1_47/buf_0/vc_0 | Changing state from vc_alloc to active.
10 | network_0/router_level1_49 | Adding flit 6 to VC 0 at input 0 (state: idle, empty).
10 | network_0/router_level1_49 | Using precomputed lookahead routing information for VC 0 at input 0 (front: 6).
10 | network_0/router_level1_49/buf_0/vc_0 | Changing state from idle to vc_alloc.
10 | network_0/router_level1_49 | Beginning VC allocation for VC 0 at input 0 (front: 6).
10 | network_0/router_level1_49 |   Requesting VC 0 at output 15 (in_pri: 0, out_pri: 0).
10 | network_0/router_level1_49 |   Requesting VC 1 at output 15 (in_pri: 0, out_pri: 0).
10 | network_0/router_level1_49 |   Requesting VC 2 at output 15 (in_pri: 0, out_pri: 0).
10 | network_0/router_level1_49 |   Requesting VC 3 at output 15 (in_pri: 0, out_pri: 0).
10 | network_0/router_level1_49/vc_allocator | Input requests = [ 0 -> [ 60@0 61@0 62@0 63@0 ]  28 -> [ 56@0 57@0 58@0 59@0 ]  ], output requests = [ 56 -> [ 28@0 ]  57 -> [ 28@0 ]  58 -> [ 28@0 ]  59 -> [ 28@0 ]  60 -> [ 0@0 ]  61 -> [ 0@0 ]  62 -> [ 0@0 ]  63 -> [ 0@0 ]  ].
10 | network_0/router_level1_49/vc_allocator | Input grants = [ 0 -> 60  28 -> 56  ], output grants = [ 56 -> 28  60 -> 0  ].
10 | network_0/router_level1_49 | Assigning VC 0 at output 15 to VC 0 at input 0.
10 | network_0/router_level1_49 | Completed VC allocation for VC 0 at input 0 (front: 6).
10 | network_0/router_level1_49 |   Acquiring assigned VC 0 at output 15.
10 | network_0/router_level1_49/buf_0/vc_0 | Changing state from vc_alloc to active.
10 | network_0/router_level1_54 | Adding flit 1 to VC 0 at input 0 (state: idle, empty).
10 | network_0/router_level1_54 | Using precomputed lookahead routing information for VC 0 at input 0 (front: 1).
10 | network_0/router_level1_54/buf_0/vc_0 | Changing state from idle to vc_alloc.
10 | network_0/router_level1_54 | Beginning VC allocation for VC 0 at input 0 (front: 1).
10 | network_0/router_level1_54 |   Requesting VC 0 at output 2 (in_pri: 0, out_pri: 0).
10 | network_0/router_level1_54 |   Requesting VC 1 at output 2 (in_pri: 0, out_pri: 0).
10 | network_0/router_level1_54 |   Requesting VC 2 at output 2 (in_pri: 0, out_pri: 0).
10 | network_0/router_level1_54 |   Requesting VC 3 at output 2 (in_pri: 0, out_pri: 0).
10 | network_0/router_level1_54/vc_allocator | Input requests = [ 0 -> [ 8@0 9@0 10@0 11@0 ]  4 -> [ 44@0 45@0 46@0 47@0 ]  16 -> [ 4@0 5@0 6@0 7@0 ]  20 -> [ 40@0 41@0 42@0 43@0 ]  24 -> [ 56@0 57@0 58@0 59@0 ]  ], output requests = [ 4 -> [ 16@0 ]  5 -> [ 16@0 ]  6 -> [ 16@0 ]  7 -> [ 16@0 ]  8 -> [ 0@0 ]  9 -> [ 0@0 ]  10 -> [ 0@0 ]  11 -> [ 0@0 ]  40 -> [ 20@0 ]  41 -> [ 20@0 ]  42 -> [ 20@0 ]  43 -> [ 20@0 ]  44 -> [ 4@0 ]  45 -> [ 4@0 ]  46 -> [ 4@0 ]  47 -> [ 4@0 ]  56 -> [ 24@0 ]  57 -> [ 24@0 ]  58 -> [ 24@0 ]  59 -> [ 24@0 ]  ].
10 | network_0/router_level1_54/vc_allocator | Input grants = [ 0 -> 8  4 -> 44  16 -> 4  20 -> 40  24 -> 56  ], output grants = [ 4 -> 16  8 -> 0  40 -> 20  44 -> 4  56 -> 24  ].
10 | network_0/router_level1_54 | Assigning VC 0 at output 2 to VC 0 at input 0.
10 | network_0/router_level1_54 | Completed VC allocation for VC 0 at input 0 (front: 1).
10 | network_0/router_level1_54 |   Acquiring assigned VC 0 at output 2.
10 | network_0/router_level1_54/buf_0/vc_0 | Changing state from vc_alloc to active.
10 | network_0/router_level1_58 | Adding flit 10 to VC 0 at input 0 (state: idle, empty).
10 | network_0/router_level1_58 | Using precomputed lookahead routing information for VC 0 at input 0 (front: 10).
10 | network_0/router_level1_58/buf_0/vc_0 | Changing state from idle to vc_alloc.
10 | network_0/router_level1_58 | Beginning VC allocation for VC 0 at input 0 (front: 10).
10 | network_0/router_level1_58 |   Requesting VC 0 at output 11 (in_pri: 0, out_pri: 0).
10 | network_0/router_level1_58 |   Requesting VC 1 at output 11 (in_pri: 0, out_pri: 0).
10 | network_0/router_level1_58 |   Requesting VC 2 at output 11 (in_pri: 0, out_pri: 0).
10 | network_0/router_level1_58 |   Requesting VC 3 at output 11 (in_pri: 0, out_pri: 0).
10 | network_0/router_level1_58/vc_allocator | Input requests = [ 0 -> [ 44@0 45@0 46@0 47@0 ]  12 -> [ 48@0 49@0 50@0 51@0 ]  20 -> [ 60@0 61@0 62@0 63@0 ]  28 -> [ 12@0 13@0 14@0 15@0 ]  ], output requests = [ 12 -> [ 28@0 ]  13 -> [ 28@0 ]  14 -> [ 28@0 ]  15 -> [ 28@0 ]  44 -> [ 0@0 ]  45 -> [ 0@0 ]  46 -> [ 0@0 ]  47 -> [ 0@0 ]  48 -> [ 12@0 ]  49 -> [ 12@0 ]  50 -> [ 12@0 ]  51 -> [ 12@0 ]  60 -> [ 20@0 ]  61 -> [ 20@0 ]  62 -> [ 20@0 ]  63 -> [ 20@0 ]  ].
10 | network_0/router_level1_58/vc_allocator | Input grants = [ 0 -> 44  12 -> 48  20 -> 60  28 -> 12  ], output grants = [ 12 -> 28  44 -> 0  48 -> 12  60 -> 20  ].
10 | network_0/router_level1_58 | Assigning VC 0 at output 11 to VC 0 at input 0.
10 | network_0/router_level1_58 | Completed VC allocation for VC 0 at input 0 (front: 10).
10 | network_0/router_level1_58 |   Acquiring assigned VC 0 at output 11.
10 | network_0/router_level1_58/buf_0/vc_0 | Changing state from vc_alloc to active.
10 | network_0/router_level1_62 | Adding flit 7 to VC 0 at input 0 (state: idle, empty).
10 | network_0/router_level1_62 | Using precomputed lookahead routing information for VC 0 at input 0 (front: 7).
10 | network_0/router_level1_62/buf_0/vc_0 | Changing state from idle to vc_alloc.
10 | network_0/router_level1_62 | Beginning VC allocation for VC 0 at input 0 (front: 7).
10 | network_0/router_level1_62 |   Requesting VC 0 at output 8 (in_pri: 0, out_pri: 0).
10 | network_0/router_level1_62 |   Requesting VC 1 at output 8 (in_pri: 0, out_pri: 0).
10 | network_0/router_level1_62 |   Requesting VC 2 at output 8 (in_pri: 0, out_pri: 0).
10 | network_0/router_level1_62 |   Requesting VC 3 at output 8 (in_pri: 0, out_pri: 0).
10 | network_0/router_level1_62/vc_allocator | Input requests = [ 0 -> [ 32@0 33@0 34@0 35@0 ]  16 -> [ 32@0 33@0 34@0 35@0 ]  20 -> [ 56@0 57@0 58@0 59@0 ]  24 -> [ 52@0 53@0 54@0 55@0 ]  28 -> [ 44@0 45@0 46@0 47@0 ]  ], output requests = [ 32 -> [ 0@0 16@0 ]  33 -> [ 0@0 16@0 ]  34 -> [ 0@0 16@0 ]  35 -> [ 0@0 16@0 ]  44 -> [ 28@0 ]  45 -> [ 28@0 ]  46 -> [ 28@0 ]  47 -> [ 28@0 ]  52 -> [ 24@0 ]  53 -> [ 24@0 ]  54 -> [ 24@0 ]  55 -> [ 24@0 ]  56 -> [ 20@0 ]  57 -> [ 20@0 ]  58 -> [ 20@0 ]  59 -> [ 20@0 ]  ].
10 | network_0/router_level1_62/vc_allocator | Input grants = [ 0 -> 32  20 -> 56  24 -> 52  28 -> 44  ], output grants = [ 32 -> 0  44 -> 28  52 -> 24  56 -> 20  ].
10 | network_0/router_level1_62 | Assigning VC 0 at output 8 to VC 0 at input 0.
10 | network_0/router_level1_62 | Completed VC allocation for VC 0 at input 0 (front: 7).
10 | network_0/router_level1_62 |   Acquiring assigned VC 0 at output 8.
10 | network_0/router_level1_62/buf_0/vc_0 | Changing state from vc_alloc to active.
10 | network_0/router_level2_6 | Beginning crossbar traversal for flit 4 from input 0.0 to output 15.0.
10 | network_0/router_level2_6 | Completed crossbar traversal for flit 4 from input 0.0 to output 15.0.
10 | network_0/router_level2_6 | Buffering flit 4 at output 15.
10 | network_0/router_level2_6 | Sending flit 4 to channel at output 15.
11 | network_0/network_0_fchan_12343 | Beginning channel traversal for flit 4 with delay 1.
11 | network_0/router_level1_13 | Beginning switch allocation for VC 0 at input 0 (front: 9).
11 | network_0/router_level1_13 |   Requesting output 14.0 (non-spec, pri: 0).
11 | network_0/router_level1_13/sw_allocator | Input requests = [ 0 -> [ 14@0 ]  1 -> [ 8@0 ]  4 -> [ 13@0 ]  ], output requests = [ 8 -> [ 1@0 ]  13 -> [ 4@0 ]  14 -> [ 0@0 ]  ].
11 | network_0/router_level1_13/sw_allocator | Input grants = [ 0 -> 14  1 -> 8  4 -> 13  ], output grants = [ 8 -> 1  13 -> 4  14 -> 0  ].
11 | network_0/router_level1_13 | Assigning output 14.0 to VC 0 at input 0.0.
11 | network_0/router_level1_13 | Completed switch allocation for VC 0 at input 0 (front: 9).
11 | network_0/router_level1_13 |   Scheduling switch connection from input 0.0 to output 14.0.
11 | network_0/router_level1_13 | Updating lookahead routing information for flit 9.
11 | network_0/router_level1_24 | Beginning switch allocation for VC 0 at input 0 (front: 3).
11 | network_0/router_level1_24 |   Requesting output 4.0 (non-spec, pri: 0).
11 | network_0/router_level1_24/sw_allocator | Input requests = [ 0 -> [ 4@0 ]  3 -> [ 15@0 ]  4 -> [ 10@0 ]  5 -> [ 12@0 ]  7 -> [ 8@0 ]  ], output requests = [ 4 -> [ 0@0 ]  8 -> [ 7@0 ]  10 -> [ 4@0 ]  12 -> [ 5@0 ]  15 -> [ 3@0 ]  ].
11 | network_0/router_level1_24/sw_allocator | Input grants = [ 0 -> 4  3 -> 15  4 -> 10  5 -> 12  7 -> 8  ], output grants = [ 4 -> 0  8 -> 7  10 -> 4  12 -> 5  15 -> 3  ].
11 | network_0/router_level1_24 | Assigning output 4.0 to VC 0 at input 0.0.
11 | network_0/router_level1_24 | Completed switch allocation for VC 0 at input 0 (front: 3).
11 | network_0/router_level1_24 |   Scheduling switch connection from input 0.0 to output 4.0.
11 | network_0/router_level1_24 | Updating lookahead routing information for flit 3.
11 | network_0/router_level1_25 | Beginning switch allocation for VC 0 at input 0 (front: 2).
11 | network_0/router_level1_25 |   Requesting output 3.0 (non-spec, pri: 0).
[...]
27 | network_0/router_level3_64 | Completed switch allocation for VC 0 at input 15 (front: 5).
27 | network_0/router_level3_64 |   Scheduling switch connection from input 15.0 to output 0.0.
27 | network_0/router_level3_72 | Beginning switch allocation for VC 0 at input 9 (front: 6).
27 | network_0/router_level3_72 |   Requesting output 0.0 (non-spec, pri: 0).
27 | network_0/router_level3_72/sw_allocator | Input requests = [ 0 -> [ 12@0 ]  1 -> [ 14@0 ]  2 -> [ 13@0 ]  3 -> [ 14@0 ]  4 -> [ 8@0 13@0 ]  5 -> [ 12@0 13@0 15@0 ]  6 -> [ 12@0 ]  7 -> [ 10@0 13@0 ]  9 -> [ 0@0 ]  11 -> [ 1@0 ]  14 -> [ 7@0 ]  15 -> [ 5@0 ]  ], output requests = [ 0 -> [ 9@0 ]  1 -> [ 11@0 ]  5 -> [ 15@0 ]  7 -> [ 14@0 ]  8 -> [ 4@0 ]  10 -> [ 7@0 ]  12 -> [ 0@0 5@0 6@0 ]  13 -> [ 2@0 4@0 5@0 7@0 ]  14 -> [ 1@0 3@0 ]  15 -> [ 5@0 ]  ].
27 | network_0/router_level3_72/sw_allocator | Input grants = [ 2 -> 13  3 -> 14  4 -> 8  5 -> 15  6 -> 12  7 -> 10  9 -> 0  11 -> 1  14 -> 7  15 -> 5  ], output grants = [ 0 -> 9  1 -> 11  5 -> 15  7 -> 14  8 -> 4  10 -> 7  12 -> 6  13 -> 2  14 -> 3  15 -> 5  ].
27 | network_0/router_level3_72 | Assigning output 0.0 to VC 0 at input 9.0.
27 | network_0/router_level3_72 | Completed switch allocation for VC 0 at input 9 (front: 6).
27 | network_0/router_level3_72 |   Scheduling switch connection from input 9.0 to output 0.0.
27 | network_0/router_level3_88 | Beginning switch allocation for VC 0 at input 14 (front: 7).
27 | network_0/router_level3_88 |   Requesting output 0.0 (non-spec, pri: 0).
27 | network_0/router_level3_88/sw_allocator | Input requests = [ 0 -> [ 15@0 ]  1 -> [ 10@0 ]  2 -> [ 11@0 14@0 ]  3 -> [ 8@0 ]  4 -> [ 13@0 15@0 ]  5 -> [ 14@0 15@0 ]  6 -> [ 8@0 12@0 ]  7 -> [ 11@0 14@0 15@0 ]  9 -> [ 5@0 ]  14 -> [ 0@0 ]  ], output requests = [ 0 -> [ 14@0 ]  5 -> [ 9@0 ]  8 -> [ 3@0 6@0 ]  10 -> [ 1@0 ]  11 -> [ 2@0 7@0 ]  12 -> [ 6@0 ]  13 -> [ 4@0 ]  14 -> [ 2@0 5@0 7@0 ]  15 -> [ 0@0 4@0 5@0 7@0 ]  ].
27 | network_0/router_level3_88/sw_allocator | Input grants = [ 0 -> 15  1 -> 10  2 -> 11  3 -> 8  4 -> 13  5 -> 14  6 -> 12  9 -> 5  14 -> 0  ], output grants = [ 0 -> 14  5 -> 9  8 -> 3  10 -> 1  11 -> 2  12 -> 6  13 -> 4  14 -> 5  15 -> 0  ].
27 | network_0/router_level3_88 | Assigning output 0.0 to VC 0 at input 14.0.
27 | network_0/router_level3_88 | Completed switch allocation for VC 0 at input 14 (front: 7).
27 | network_0/router_level3_88 |   Scheduling switch connection from input 14.0 to output 0.0.
27 | network_0/router_level3_96 | Beginning switch allocation for VC 0 at input 8 (front: 8).
27 | network_0/router_level3_96 |   Requesting output 0.0 (non-spec, pri: 0).
27 | network_0/router_level3_96/sw_allocator | Input requests = [ 0 -> [ 8@0 13@0 ]  1 -> [ 10@0 12@0 13@0 ]  2 -> [ 9@0 12@0 15@0 ]  3 -> [ 9@0 ]  4 -> [ 14@0 ]  5 -> [ 12@0 ]  6 -> [ 13@0 ]  7 -> [ 8@0 10@0 15@0 ]  8 -> [ 0@0 ]  14 -> [ 3@0 ]  ], output requests = [ 0 -> [ 8@0 ]  3 -> [ 14@0 ]  8 -> [ 0@0 7@0 ]  9 -> [ 2@0 3@0 ]  10 -> [ 1@0 7@0 ]  12 -> [ 1@0 2@0 5@0 ]  13 -> [ 0@0 1@0 6@0 ]  14 -> [ 4@0 ]  15 -> [ 2@0 7@0 ]  ].
27 | network_0/router_level3_96/sw_allocator | Input grants = [ 1 -> 13  2 -> 12  3 -> 9  4 -> 14  7 -> 8  8 -> 0  14 -> 3  ], output grants = [ 0 -> 8  3 -> 14  8 -> 7  9 -> 3  12 -> 2  13 -> 1  14 -> 4  ].
27 | network_0/router_level3_96 | Assigning output 0.0 to VC 0 at input 8.0.
27 | network_0/router_level3_96 | Completed switch allocation for VC 0 at input 8 (front: 8).
27 | network_0/router_level3_96 |   Scheduling switch connection from input 8.0 to output 0.0.
27 | network_0/network_0_fchan_17256 | Completed channel traversal for flit 9.
28 | network_0/router_level3_104 | Received flit 9 from channel at input 13.
28 | network_0/router_level2_114 | Beginning crossbar traversal for flit 10 from input 15.0 to output 0.0.
28 | network_0/router_level2_114 | Completed crossbar traversal for flit 10 from input 15.0 to output 0.0.
28 | network_0/router_level2_114 | Buffering flit 10 at output 0.
28 | network_0/router_level3_64 | Beginning crossbar traversal for flit 5 from input 15.0 to output 0.0.
28 | network_0/router_level3_64 | Completed crossbar traversal for flit 5 from input 15.0 to output 0.0.
28 | network_0/router_level3_64 | Buffering flit 5 at output 0.
28 | network_0/router_level3_72 | Beginning crossbar traversal for flit 6 from input 9.0 to output 0.0.
28 | network_0/router_level3_72 | Completed crossbar traversal for flit 6 from input 9.0 to output 0.0.
28 | network_0/router_level3_72 | Buffering flit 6 at output 0.
28 | network_0/router_level3_88 | Beginning crossbar traversal for flit 7 from input 14.0 to output 0.0.
28 | network_0/router_level3_88 | Completed crossbar traversal for flit 7 from input 14.0 to output 0.0.
28 | network_0/router_level3_88 | Buffering flit 7 at output 0.
28 | network_0/router_level3_96 | Beginning crossbar traversal for flit 8 from input 8.0 to output 0.0.
28 | network_0/router_level3_96 | Completed crossbar traversal for flit 8 from input 8.0 to output 0.0.
28 | network_0/router_level3_96 | Buffering flit 8 at output 0.
28 | network_0/router_level3_104 | Adding flit 9 to VC 1 at input 13 (state: idle, empty).
28 | network_0/router_level3_104 | Using precomputed lookahead routing information for VC 1 at input 13 (front: 9).
28 | network_0/router_level3_104/buf_13/vc_1 | Changing state from idle to vc_alloc.
28 | network_0/router_level3_104 | Beginning VC allocation for VC 1 at input 13 (front: 9).
28 | network_0/router_level3_104 |   VC 0 at output 0 is in use by VC 0 at input 9 (front flit: 3060).
28 | network_0/router_level3_104 |   Requesting VC 1 at output 0 (in_pri: 0, out_pri: 0).
28 | network_0/router_level3_104 |   Requesting VC 2 at output 0 (in_pri: 0, out_pri: 0).
28 | network_0/router_level3_104 |   Requesting VC 3 at output 0 (in_pri: 0, out_pri: 0).
28 | network_0/router_level3_104/vc_allocator | Input requests = [ 1 -> [ 36@0 38@0 ]  8 -> [ 63@0 ]  14 -> [ 35@0 ]  15 -> [ 53@0 54@0 55@0 ]  17 -> [ 63@0 ]  18 -> [ 44@0 47@0 ]  19 -> [ 44@0 47@0 ]  20 -> [ 41@0 ]  22 -> [ 36@0 38@0 ]  26 -> [ 41@0 ]  29 -> [ 41@0 ]  31 -> [ 63@0 ]  37 -> [ 4@0 5@0 6@0 7@0 ]  53 -> [ 1@0 2@0 3@0 ]  ], output requests = [ 1 -> [ 53@0 ]  2 -> [ 53@0 ]  3 -> [ 53@0 ]  4 -> [ 37@0 ]  5 -> [ 37@0 ]  6 -> [ 37@0 ]  7 -> [ 37@0 ]  35 -> [ 14@0 ]  36 -> [ 1@0 22@0 ]  38 -> [ 1@0 22@0 ]  41 -> [ 20@0 26@0 29@0 ]  44 -> [ 18@0 19@0 ]  47 -> [ 18@0 19@0 ]  53 -> [ 15@0 ]  54 -> [ 15@0 ]  55 -> [ 15@0 ]  63 -> [ 8@0 17@0 31@0 ]  ].
28 | network_0/router_level3_104/vc_allocator | Input grants = [ 8 -> 63  14 -> 35  15 -> 53  18 -> 44  20 -> 41  22 -> 36  37 -> 4  53 -> 1  ], output grants = [ 1 -> 53  4 -> 37  35 -> 14  36 -> 22  41 -> 20  44 -> 18  53 -> 15  63 -> 8  ].
28 | network_0/router_level3_104 | Assigning VC 1 at output 0 to VC 1 at input 13.
28 | network_0/router_level3_104 | Completed VC allocation for VC 1 at input 13 (front: 9).
28 | network_0/router_level3_104 |   Acquiring assigned VC 1 at output 0.
28 | network_0/router_level3_104/buf_13/vc_1 | Changing state from vc_alloc to active.
28 | network_0/router_level2_114 | Sending flit 10 to channel at output 0.
28 | network_0/router_level3_64 | Sending flit 5 to channel at output 0.
28 | network_0/router_level3_72 | Sending flit 6 to channel at output 0.
28 | network_0/router_level3_88 | Sending flit 7 to channel at output 0.
28 | network_0/router_level3_96 | Sending flit 8 to channel at output 0.
29 | network_0/network_0_fchan_egress512 | Beginning channel traversal for flit 5 with delay 1.
29 | network_0/network_0_fchan_egress576 | Beginning channel traversal for flit 6 with delay 1.
29 | network_0/network_0_fchan_egress704 | Beginning channel traversal for flit 7 with delay 1.
29 | network_0/network_0_fchan_egress768 | Beginning channel traversal for flit 8 with delay 1.
29 | network_0/network_0_fchan_17296 | Beginning channel traversal for flit 10 with delay 1.
29 | network_0/router_level3_104 | Beginning switch allocation for VC 1 at input 13 (front: 9).
29 | network_0/router_level3_104 |   Requesting output 0.0 (non-spec, pri: 0).
29 | network_0/router_level3_104/sw_allocator | Input requests = [ 0 -> [ 8@0 9@0 ]  1 -> [ 10@0 ]  2 -> [ 8@0 10@0 15@0 ]  3 -> [ 8@0 13@0 ]  4 -> [ 11@0 ]  5 -> [ 9@0 10@0 11@0 ]  6 -> [ 13@0 15@0 ]  7 -> [ 15@0 ]  9 -> [ 1@0 ]  13 -> [ 0@0 ]  ], output requests = [ 0 -> [ 13@0 ]  1 -> [ 9@0 ]  8 -> [ 0@0 2@0 3@0 ]  9 -> [ 0@0 5@0 ]  10 -> [ 1@0 2@0 5@0 ]  11 -> [ 4@0 5@0 ]  13 -> [ 3@0 6@0 ]  15 -> [ 2@0 6@0 7@0 ]  ].
29 | network_0/router_level3_104/sw_allocator | Input grants = [ 0 -> 8  1 -> 10  4 -> 11  5 -> 9  6 -> 15  9 -> 1  13 -> 0  ], output grants = [ 0 -> 13  1 -> 9  8 -> 0  9 -> 5  10 -> 1  11 -> 4  15 -> 6  ].
29 | network_0/router_level3_104 | Assigning output 0.0 to VC 1 at input 13.0.
29 | network_0/router_level3_104 | Completed switch allocation for VC 1 at input 13 (front: 9).
29 | network_0/router_level3_104 |   Scheduling switch connection from input 13.0 to output 0.0.
29 | network_0/network_0_fchan_egress512 | Completed channel traversal for flit 5.
29 | network_0/network_0_fchan_egress576 | Completed channel traversal for flit 6.
29 | network_0/network_0_fchan_egress704 | Completed channel traversal for flit 7.
29 | network_0/network_0_fchan_egress768 | Completed channel traversal for flit 8.
29 | network_0/network_0_fchan_17296 | Completed channel traversal for flit 10.
30 | node512 | Ejecting flit 5 (packet 5) from VC 0.
30 | node576 | Ejecting flit 6 (packet 6) from VC 0.
30 | node704 | Ejecting flit 7 (packet 7) from VC 0.
30 | node768 | Ejecting flit 8 (packet 8) from VC 0.
30 | network_0/router_level3_112 | Received flit 10 from channel at input 10.
30 | node512 | Injecting credit for VC 0 into subnet 0.
30 | node512 | Retiring flit 5 (packet 5, src = 8, dest = 512, hops = 7, flat = 30).
30 | node512 | Retiring packet 5 (plat = 30, nlat = 30, frag = 0, src = 8, dest = 512).
30 | node576 | Injecting credit for VC 0 into subnet 0.
30 | node576 | Retiring flit 6 (packet 6, src = 9, dest = 576, hops = 7, flat = 30).
30 | node576 | Retiring packet 6 (plat = 30, nlat = 30, frag = 0, src = 9, dest = 576).
30 | node704 | Injecting credit for VC 0 into subnet 0.
30 | node704 | Retiring flit 7 (packet 7, src = 11, dest = 704, hops = 7, flat = 30).
30 | node704 | Retiring packet 7 (plat = 30, nlat = 30, frag = 0, src = 11, dest = 704).
30 | node768 | Injecting credit for VC 0 into subnet 0.
30 | node768 | Retiring flit 8 (packet 8, src = 12, dest = 768, hops = 7, flat = 30).
30 | node768 | Retiring packet 8 (plat = 30, nlat = 30, frag = 0, src = 12, dest = 768).
30 | network_0/router_level3_104 | Beginning crossbar traversal for flit 9 from input 13.0 to output 0.0.
30 | network_0/router_level3_104 | Completed crossbar traversal for flit 9 from input 13.0 to output 0.0.
30 | network_0/router_level3_104 | Buffering flit 9 at output 0.
30 | network_0/router_level3_112 | Adding flit 10 to VC 0 at input 10 (state: idle, empty).
30 | network_0/router_level3_112 | Using precomputed lookahead routing information for VC 0 at input 10 (front: 10).
30 | network_0/router_level3_112/buf_10/vc_0 | Changing state from idle to vc_alloc.
30 | network_0/router_level3_112 | Beginning VC allocation for VC 0 at input 10 (front: 10).
30 | network_0/router_level3_112 |   Requesting VC 0 at output 0 (in_pri: 0, out_pri: 0).
30 | network_0/router_level3_112 |   Requesting VC 1 at output 0 (in_pri: 0, out_pri: 0).
30 | network_0/router_level3_112 |   Requesting VC 2 at output 0 (in_pri: 0, out_pri: 0).
30 | network_0/router_level3_112 |   Requesting VC 3 at output 0 (in_pri: 0, out_pri: 0).
30 | network_0/router_level3_112/vc_allocator | Input requests = [ 2 -> [ 39@0 ]  5 -> [ 39@0 ]  10 -> [ 53@0 54@0 55@0 ]  12 -> [ 39@0 ]  17 -> [ 60@0 63@0 ]  18 -> [ 41@0 42@0 43@0 ]  20 -> [ 39@0 ]  23 -> [ 44@0 46@0 47@0 ]  29 -> [ 49@0 ]  31 -> [ 57@0 ]  40 -> [ 0@0 1@0 2@0 3@0 ]  56 -> [ 16@0 17@0 18@0 19@0 ]  ], output requests = [ 0 -> [ 40@0 ]  1 -> [ 40@0 ]  2 -> [ 40@0 ]  3 -> [ 40@0 ]  16 -> [ 56@0 ]  17 -> [ 56@0 ]  18 -> [ 56@0 ]  19 -> [ 56@0 ]  39 -> [ 2@0 5@0 12@0 20@0 ]  41 -> [ 18@0 ]  42 -> [ 18@0 ]  43 -> [ 18@0 ]  44 -> [ 23@0 ]  46 -> [ 23@0 ]  47 -> [ 23@0 ]  49 -> [ 29@0 ]  53 -> [ 10@0 ]  54 -> [ 10@0 ]  55 -> [ 10@0 ]  57 -> [ 31@0 ]  60 -> [ 17@0 ]  63 -> [ 17@0 ]  ].
30 | network_0/router_level3_112/vc_allocator | Input grants = [ 10 -> 54  12 -> 39  17 -> 63  18 -> 41  23 -> 44  29 -> 49  31 -> 57  40 -> 0  56 -> 16  ], output grants = [ 0 -> 40  16 -> 56  39 -> 12  41 -> 18  44 -> 23  49 -> 29  54 -> 10  57 -> 31  63 -> 17  ].
30 | network_0/router_level3_112 | Assigning VC 0 at output 0 to VC 0 at input 10.
30 | network_0/router_level3_112 | Completed VC allocation for VC 0 at input 10 (front: 10).
30 | network_0/router_level3_112 |   Acquiring assigned VC 0 at output 0.
30 | network_0/router_level3_112/buf_10/vc_0 | Changing state from vc_alloc to active.
30 | network_0/router_level3_104 | Sending flit 9 to channel at output 0.
31 | network_0/network_0_fchan_egress832 | Beginning channel traversal for flit 9 with delay 1.
31 | network_0/router_level3_112 | Beginning switch allocation for VC 0 at input 10 (front: 10).
31 | network_0/router_level3_112 |   Requesting output 0.0 (non-spec, pri: 0).
31 | network_0/router_level3_112/sw_allocator | Input requests = [ 0 -> [ 14@0 ]  1 -> [ 9@0 ]  2 -> [ 13@0 ]  3 -> [ 9@0 12@0 14@0 15@0 ]  4 -> [ 10@0 15@0 ]  5 -> [ 11@0 ]  6 -> [ 12@0 ]  7 -> [ 9@0 12@0 14@0 ]  10 -> [ 0@0 ]  14 -> [ 4@0 ]  ], output requests = [ 0 -> [ 10@0 ]  4 -> [ 14@0 ]  9 -> [ 1@0 3@0 7@0 ]  10 -> [ 4@0 ]  11 -> [ 5@0 ]  12 -> [ 3@0 6@0 7@0 ]  13 -> [ 2@0 ]  14 -> [ 0@0 3@0 7@0 ]  15 -> [ 3@0 4@0 ]  ].
31 | network_0/router_level3_112/sw_allocator | Input grants = [ 0 -> 14  2 -> 13  3 -> 12  4 -> 15  5 -> 11  7 -> 9  10 -> 0  14 -> 4  ], output grants = [ 0 -> 10  4 -> 14  9 -> 7  11 -> 5  12 -> 3  13 -> 2  14 -> 0  15 -> 4  ].
31 | network_0/router_level3_112 | Assigning output 0.0 to VC 0 at input 10.0.
31 | network_0/router_level3_112 | Completed switch allocation for VC 0 at input 10 (front: 10).
31 | network_0/router_level3_112 |   Scheduling switch connection from input 10.0 to output 0.0.
31 | network_0/network_0_fchan_egress832 | Completed channel traversal for flit 9.
32 | node832 | Ejecting flit 9 (packet 9) from VC 1.
32 | node832 | Injecting credit for VC 1 into subnet 0.
32 | node832 | Retiring flit 9 (packet 9, src = 13, dest = 832, hops = 7, flat = 32).
32 | node832 | Retiring packet 9 (plat = 32, nlat = 32, frag = 0, src = 13, dest = 832).
32 | network_0/router_level3_112 | Beginning crossbar traversal for flit 10 from input 10.0 to output 0.0.
32 | network_0/router_level3_112 | Completed crossbar traversal for flit 10 from input 10.0 to output 0.0.
32 | network_0/router_level3_112 | Buffering flit 10 at output 0.
32 | network_0/router_level3_112 | Sending flit 10 to channel at output 0.
33 | network_0/network_0_fchan_egress896 | Beginning channel traversal for flit 10 with delay 1.
33 | network_0/network_0_fchan_egress896 | Completed channel traversal for flit 10.
34 | node896 | Ejecting flit 10 (packet 10) from VC 0.
34 | node896 | Injecting credit for VC 0 into subnet 0.
34 | node896 | Retiring flit 10 (packet 10, src = 14, dest = 896, hops = 7, flat = 34).
34 | node896 | Retiring packet 10 (plat = 34, nlat = 34, frag = 0, src = 14, dest = 896).
Class 0:
Packet latency average = 125.718
	minimum = 6
	maximum = 442
Network latency average = 125.069
	minimum = 6
	maximum = 442
Slowest packet = 1405104
Flit latency average = 125.069
	minimum = 6
	maximum = 442
Slowest flit = 1405104
Fragmentation average = 0
	minimum = 0
	maximum = 0
Injected packet rate average = 0.737062
	minimum = 0.661 (at node 3526)
	maximum = 0.78 (at node 3441)
Accepted packet rate average = 0.60116
	minimum = 0.527 (at node 2173)
	maximum = 0.774 (at node 1300)
Injected flit rate average = 0.737062
	minimum = 0.661 (at node 3526)
	maximum = 0.78 (at node 3441)
Accepted flit rate average= 0.60116
	minimum = 0.527 (at node 2173)
	maximum = 0.774 (at node 1300)
Injected packet length average = 1
Accepted packet length average = 1
Total in-flight flits = 557518 (0 measured)
latency change    = 1
throughput change = 1
Class 0:
Packet latency average = 195.602
	minimum = 6
	maximum = 630
Network latency average = 175.028
	minimum = 6
	maximum = 529
Slowest packet = 2092789
Flit latency average = 175.028
	minimum = 6
	maximum = 529
Slowest flit = 4108187
Fragmentation average = 0
	minimum = 0
	maximum = 0
Injected packet rate average = 0.710211
	minimum = 0.6475 (at node 3852)
	maximum = 0.775 (at node 520)
Accepted packet rate average = 0.628841
	minimum = 0.574 (at node 828)
	maximum = 0.7725 (at node 520)
Injected flit rate average = 0.710211
	minimum = 0.6475 (at node 3852)
	maximum = 0.775 (at node 520)
Accepted flit rate average= 0.628841
	minimum = 0.574 (at node 828)
	maximum = 0.7725 (at node 520)
Injected packet length average = 1
Accepted packet length average = 1
Total in-flight flits = 667839 (0 measured)
latency change    = 0.357277
throughput change = 0.0440195
Class 0:
Packet latency average = 377.454
	minimum = 6
	maximum = 854
Network latency average = 250.429
	minimum = 6
	maximum = 595
Slowest packet = 5069646
Flit latency average = 250.429
	minimum = 6
	maximum = 595
Slowest flit = 5421558
Fragmentation average = 0
	minimum = 0
	maximum = 0
Injected packet rate average = 0.676842
	minimum = 0.589 (at node 937)
	maximum = 0.794 (at node 65)
Accepted packet rate average = 0.664172
	minimum = 0.587 (at node 3335)
	maximum = 0.796 (at node 65)
Injected flit rate average = 0.676842
	minimum = 0.589 (at node 937)
	maximum = 0.794 (at node 65)
Accepted flit rate average= 0.664172
	minimum = 0.587 (at node 3335)
	maximum = 0.796 (at node 65)
Injected packet length average = 1
Accepted packet length average = 1
Total in-flight flits = 719730 (0 measured)
latency change    = 0.481786
throughput change = 0.0531947
Warmed up ...Time used is 3000 cycles
Class 0:
Packet latency average = 493.348
	minimum = 6
	maximum = 980
Network latency average = 260.512
	minimum = 6
	maximum = 616
Slowest packet = 8594390
Flit latency average = 265.879
	minimum = 6
	maximum = 616
Slowest flit = 9628267
Fragmentation average = 0
	minimum = 0
	maximum = 0
Injected packet rate average = 0.675737
	minimum = 0.595 (at node 122)
	maximum = 0.778 (at node 1690)
Accepted packet rate average = 0.667484
	minimum = 0.586 (at node 3280)
	maximum = 0.777 (at node 1430)
Injected flit rate average = 0.675737
	minimum = 0.595 (at node 122)
	maximum = 0.778 (at node 1690)
Accepted flit rate average= 0.667484
	minimum = 0.586 (at node 3280)
	maximum = 0.777 (at node 1430)
Injected packet length average = 1
Accepted packet length average = 1
Total in-flight flits = 753597 (753597 measured)
latency change    = 0.234913
throughput change = 0.0049623
Class 0:
Packet latency average = 552.526
	minimum = 6
	maximum = 1134
Network latency average = 269.709
	minimum = 6
	maximum = 704
Slowest packet = 8594390
Flit latency average = 271.18
	minimum = 6
	maximum = 704
Slowest flit = 10894163
Fragmentation average = 0
	minimum = 0
	maximum = 0
Injected packet rate average = 0.67584
	minimum = 0.6185 (at node 122)
	maximum = 0.77 (at node 585)
Accepted packet rate average = 0.668431
	minimum = 0.6125 (at node 395)
	maximum = 0.771 (at node 585)
Injected flit rate average = 0.67584
	minimum = 0.6185 (at node 122)
	maximum = 0.77 (at node 585)
Accepted flit rate average= 0.668431
	minimum = 0.6125 (at node 395)
	maximum = 0.771 (at node 585)
Injected packet length average = 1
Accepted packet length average = 1
Total in-flight flits = 780456 (780456 measured)
latency change    = 0.107105
throughput change = 0.00141587
Average latency for class 0 exceeded 500 cycles. Aborting simulation.
Too many sample periods needed to converge
Simulation unstable, ending ...
Total run time 1384.92
