BEGIN Configuration File: examples/fattree_config_0.35_4_uniform
// $Id: dragonflyconfig 3555 2011-05-16 23:37:55Z dub $

// Copyright (c) 2007-2015, Trustees of The Leland Stanford Junior University
// All rights reserved.
//
// Redistribution and use in source and binary forms, with or without
// modification, are permitted provided that the following conditions are met:
//
// Redistributions of source code must retain the above copyright notice, this
// list of conditions and the following disclaimer.
// Redistributions in binary form must reproduce the above copyright notice,
// this list of conditions and the following disclaimer in the documentation
// and/or other materials provided with the distribution.
//
// THIS SOFTWARE IS PROVIDED BY THE COPYRIGHT HOLDERS AND CONTRIBUTORS "AS IS"
// AND ANY EXPRESS OR IMPLIED WARRANTIES, INCLUDING, BUT NOT LIMITED TO, THE
// IMPLIED WARRANTIES OF MERCHANTABILITY AND FITNESS FOR A PARTICULAR PURPOSE
// ARE DISCLAIMED. IN NO EVENT SHALL THE COPYRIGHT OWNER OR CONTRIBUTORS BE
// LIABLE FOR ANY DIRECT, INDIRECT, INCIDENTAL, SPECIAL, EXEMPLARY, OR
// CONSEQUENTIAL DAMAGES (INCLUDING, BUT NOT LIMITED TO, PROCUREMENT OF
// SUBSTITUTE GOODS OR SERVICES; LOSS OF USE, DATA, OR PROFITS; OR BUSINESS
// INTERRUPTION) HOWEVER CAUSED AND ON ANY THEORY OF LIABILITY, WHETHER IN
// CONTRACT, STRICT LIABILITY, OR TORT (INCLUDING NEGLIGENCE OR OTHERWISE)
// ARISING IN ANY WAY OUT OF THE USE OF THIS SOFTWARE, EVEN IF ADVISED OF THE
// POSSIBILITY OF SUCH DAMAGE.


hold_switch_for_packet=1;

vc_buf_size = 16;


wait_for_tail_credit = 0;

//
// Router architecture
//
vc_allocator = separable_input_first; 
sw_allocator = separable_input_first;
alloc_iters  = 1;

credit_delay   = 2;
routing_delay  = 0;
vc_alloc_delay = 1;
sw_alloc_delay = 1;
st_final_delay = 1;

input_speedup     = 1;
output_speedup    = 1;
internal_speedup  = 1.0;


warmup_periods = 3;
sim_count          = 1;

sample_period  = 1000;  

routing_function = nca;
num_vcs     = 4;

priority = none;
traffic = uniform;


injection_rate = 0.35;
packet_size = 1;
injection_rate_uses_flits=1;

topology = fattree;

k  = 8;
n  = 4;
t = 4;

watch_file = watchfile.txt;
watch_out=-;
stats_out = examples/fattree_config_0.35_4_uniform.m;

END Configuration File: examples/fattree_config_0.35_4_uniform
Fat Tree
 k = 8 levels = 4
 each switch - total radix =  16
 # of switches = 2048
 # of channels = 24576
 # of nodes ( size of network ) = 4096
 tapering factor = 4
0 | node11 | Enqueuing flit 1 (packet 1) at time 0.
0 | node12 | Enqueuing flit 2 (packet 2) at time 0.
0 | node13 | Enqueuing flit 3 (packet 3) at time 0.
0 | node14 | Enqueuing flit 4 (packet 4) at time 0.
0 | node15 | Enqueuing flit 5 (packet 5) at time 0.
0 | node18 | Enqueuing flit 6 (packet 6) at time 0.
0 | node19 | Enqueuing flit 7 (packet 7) at time 0.
0 | node20 | Enqueuing flit 8 (packet 8) at time 0.
0 | node30 | Enqueuing flit 9 (packet 9) at time 0.
0 | node31 | Enqueuing flit 10 (packet 10) at time 0.
0 | traffic_manager | Finding output VC for flit 1:
0 | traffic_manager |   Selected output VC 0.
0 | node11 | Generating lookahead routing info for flit 1.
0 | node11 | Injecting flit 1 into subnet 0 at time 0 with priority 0.
0 | traffic_manager | Finding output VC for flit 2:
0 | traffic_manager |   Selected output VC 0.
0 | node12 | Generating lookahead routing info for flit 2.
0 | node12 | Injecting flit 2 into subnet 0 at time 0 with priority 0.
0 | traffic_manager | Finding output VC for flit 3:
0 | traffic_manager |   Selected output VC 0.
0 | node13 | Generating lookahead routing info for flit 3.
0 | node13 | Injecting flit 3 into subnet 0 at time 0 with priority 0.
0 | traffic_manager | Finding output VC for flit 4:
0 | traffic_manager |   Selected output VC 0.
0 | node14 | Generating lookahead routing info for flit 4.
0 | node14 | Injecting flit 4 into subnet 0 at time 0 with priority 0.
0 | traffic_manager | Finding output VC for flit 5:
0 | traffic_manager |   Selected output VC 0.
0 | node15 | Generating lookahead routing info for flit 5.
0 | node15 | Injecting flit 5 into subnet 0 at time 0 with priority 0.
0 | traffic_manager | Finding output VC for flit 6:
0 | traffic_manager |   Selected output VC 0.
0 | node18 | Generating lookahead routing info for flit 6.
0 | node18 | Injecting flit 6 into subnet 0 at time 0 with priority 0.
0 | traffic_manager | Finding output VC for flit 7:
0 | traffic_manager |   Selected output VC 0.
0 | node19 | Generating lookahead routing info for flit 7.
0 | node19 | Injecting flit 7 into subnet 0 at time 0 with priority 0.
0 | traffic_manager | Finding output VC for flit 8:
0 | traffic_manager |   Selected output VC 0.
0 | node20 | Generating lookahead routing info for flit 8.
0 | node20 | Injecting flit 8 into subnet 0 at time 0 with priority 0.
0 | traffic_manager | Finding output VC for flit 9:
0 | traffic_manager |   Selected output VC 0.
0 | node30 | Generating lookahead routing info for flit 9.
0 | node30 | Injecting flit 9 into subnet 0 at time 0 with priority 0.
0 | traffic_manager | Finding output VC for flit 10:
0 | traffic_manager |   Selected output VC 0.
0 | node31 | Generating lookahead routing info for flit 10.
0 | node31 | Injecting flit 10 into subnet 0 at time 0 with priority 0.
1 | network_0/network_0_fchan_ingress11 | Beginning channel traversal for flit 1 with delay 1.
1 | network_0/network_0_fchan_ingress12 | Beginning channel traversal for flit 2 with delay 1.
1 | network_0/network_0_fchan_ingress13 | Beginning channel traversal for flit 3 with delay 1.
1 | network_0/network_0_fchan_ingress14 | Beginning channel traversal for flit 4 with delay 1.
1 | network_0/network_0_fchan_ingress15 | Beginning channel traversal for flit 5 with delay 1.
1 | network_0/network_0_fchan_ingress18 | Beginning channel traversal for flit 6 with delay 1.
1 | network_0/network_0_fchan_ingress19 | Beginning channel traversal for flit 7 with delay 1.
1 | network_0/network_0_fchan_ingress20 | Beginning channel traversal for flit 8 with delay 1.
1 | network_0/network_0_fchan_ingress30 | Beginning channel traversal for flit 9 with delay 1.
1 | network_0/network_0_fchan_ingress31 | Beginning channel traversal for flit 10 with delay 1.
1 | network_0/network_0_fchan_ingress11 | Completed channel traversal for flit 1.
1 | network_0/network_0_fchan_ingress12 | Completed channel traversal for flit 2.
1 | network_0/network_0_fchan_ingress13 | Completed channel traversal for flit 3.
1 | network_0/network_0_fchan_ingress14 | Completed channel traversal for flit 4.
1 | network_0/network_0_fchan_ingress15 | Completed channel traversal for flit 5.
1 | network_0/network_0_fchan_ingress18 | Completed channel traversal for flit 6.
1 | network_0/network_0_fchan_ingress19 | Completed channel traversal for flit 7.
1 | network_0/network_0_fchan_ingress20 | Completed channel traversal for flit 8.
1 | network_0/network_0_fchan_ingress30 | Completed channel traversal for flit 9.
1 | network_0/network_0_fchan_ingress31 | Completed channel traversal for flit 10.
2 | network_0/router_level3_1 | Received flit 1 from channel at input 3.
2 | network_0/router_level3_1 | Received flit 2 from channel at input 4.
2 | network_0/router_level3_1 | Received flit 3 from channel at input 5.
2 | network_0/router_level3_1 | Received flit 4 from channel at input 6.
2 | network_0/router_level3_1 | Received flit 5 from channel at input 7.
2 | network_0/router_level3_2 | Received flit 6 from channel at input 2.
2 | network_0/router_level3_2 | Received flit 7 from channel at input 3.
2 | network_0/router_level3_2 | Received flit 8 from channel at input 4.
2 | network_0/router_level3_3 | Received flit 9 from channel at input 6.
2 | network_0/router_level3_3 | Received flit 10 from channel at input 7.
2 | network_0/router_level3_1 | Adding flit 1 to VC 0 at input 3 (state: idle, empty).
2 | network_0/router_level3_1 | Using precomputed lookahead routing information for VC 0 at input 3 (front: 1).
2 | network_0/router_level3_1/buf_3/vc_0 | Changing state from idle to vc_alloc.
2 | network_0/router_level3_1 | Adding flit 2 to VC 0 at input 4 (state: idle, empty).
2 | network_0/router_level3_1 | Using precomputed lookahead routing information for VC 0 at input 4 (front: 2).
2 | network_0/router_level3_1/buf_4/vc_0 | Changing state from idle to vc_alloc.
2 | network_0/router_level3_1 | Adding flit 3 to VC 0 at input 5 (state: idle, empty).
2 | network_0/router_level3_1 | Using precomputed lookahead routing information for VC 0 at input 5 (front: 3).
2 | network_0/router_level3_1/buf_5/vc_0 | Changing state from idle to vc_alloc.
2 | network_0/router_level3_1 | Adding flit 4 to VC 0 at input 6 (state: idle, empty).
2 | network_0/router_level3_1 | Using precomputed lookahead routing information for VC 0 at input 6 (front: 4).
2 | network_0/router_level3_1/buf_6/vc_0 | Changing state from idle to vc_alloc.
2 | network_0/router_level3_1 | Adding flit 5 to VC 0 at input 7 (state: idle, empty).
2 | network_0/router_level3_1 | Using precomputed lookahead routing information for VC 0 at input 7 (front: 5).
2 | network_0/router_level3_1/buf_7/vc_0 | Changing state from idle to vc_alloc.
2 | network_0/router_level3_1 | Beginning VC allocation for VC 0 at input 3 (front: 1).
2 | network_0/router_level3_1 |   Requesting VC 0 at output 9 (in_pri: 0, out_pri: 0).
2 | network_0/router_level3_1 |   Requesting VC 1 at output 9 (in_pri: 0, out_pri: 0).
2 | network_0/router_level3_1 |   Requesting VC 2 at output 9 (in_pri: 0, out_pri: 0).
2 | network_0/router_level3_1 |   Requesting VC 3 at output 9 (in_pri: 0, out_pri: 0).
2 | network_0/router_level3_1 | Beginning VC allocation for VC 0 at input 4 (front: 2).
2 | network_0/router_level3_1 |   Requesting VC 0 at output 14 (in_pri: 0, out_pri: 0).
2 | network_0/router_level3_1 |   Requesting VC 1 at output 14 (in_pri: 0, out_pri: 0).
2 | network_0/router_level3_1 |   Requesting VC 2 at output 14 (in_pri: 0, out_pri: 0).
2 | network_0/router_level3_1 |   Requesting VC 3 at output 14 (in_pri: 0, out_pri: 0).
2 | network_0/router_level3_1 | Beginning VC allocation for VC 0 at input 5 (front: 3).
2 | network_0/router_level3_1 |   Requesting VC 0 at output 9 (in_pri: 0, out_pri: 0).
2 | network_0/router_level3_1 |   Requesting VC 1 at output 9 (in_pri: 0, out_pri: 0).
2 | network_0/router_level3_1 |   Requesting VC 2 at output 9 (in_pri: 0, out_pri: 0).
2 | network_0/router_level3_1 |   Requesting VC 3 at output 9 (in_pri: 0, out_pri: 0).
2 | network_0/router_level3_1 | Beginning VC allocation for VC 0 at input 6 (front: 4).
2 | network_0/router_level3_1 |   Requesting VC 0 at output 12 (in_pri: 0, out_pri: 0).
2 | network_0/router_level3_1 |   Requesting VC 1 at output 12 (in_pri: 0, out_pri: 0).
2 | network_0/router_level3_1 |   Requesting VC 2 at output 12 (in_pri: 0, out_pri: 0).
2 | network_0/router_level3_1 |   Requesting VC 3 at output 12 (in_pri: 0, out_pri: 0).
2 | network_0/router_level3_1 | Beginning VC allocation for VC 0 at input 7 (front: 5).
2 | network_0/router_level3_1 |   Requesting VC 0 at output 8 (in_pri: 0, out_pri: 0).
2 | network_0/router_level3_1 |   Requesting VC 1 at output 8 (in_pri: 0, out_pri: 0).
2 | network_0/router_level3_1 |   Requesting VC 2 at output 8 (in_pri: 0, out_pri: 0).
2 | network_0/router_level3_1 |   Requesting VC 3 at output 8 (in_pri: 0, out_pri: 0).
2 | network_0/router_level3_1/vc_allocator | Input requests = [ 4 -> [ 56@0 57@0 58@0 59@0 ]  12 -> [ 36@0 37@0 38@0 39@0 ]  16 -> [ 56@0 57@0 58@0 59@0 ]  20 -> [ 36@0 37@0 38@0 39@0 ]  24 -> [ 48@0 49@0 50@0 51@0 ]  28 -> [ 32@0 33@0 34@0 35@0 ]  ], output requests = [ 32 -> [ 28@0 ]  33 -> [ 28@0 ]  34 -> [ 28@0 ]  35 -> [ 28@0 ]  36 -> [ 12@0 20@0 ]  37 -> [ 12@0 20@0 ]  38 -> [ 12@0 20@0 ]  39 -> [ 12@0 20@0 ]  48 -> [ 24@0 ]  49 -> [ 24@0 ]  50 -> [ 24@0 ]  51 -> [ 24@0 ]  56 -> [ 4@0 16@0 ]  57 -> [ 4@0 16@0 ]  58 -> [ 4@0 16@0 ]  59 -> [ 4@0 16@0 ]  ].
2 | network_0/router_level3_1/vc_allocator | Input grants = [ 4 -> 56  12 -> 36  24 -> 48  28 -> 32  ], output grants = [ 32 -> 28  36 -> 12  48 -> 24  56 -> 4  ].
2 | network_0/router_level3_1 | Assigning VC 0 at output 9 to VC 0 at input 3.
2 | network_0/router_level3_1 | VC allocation failed for VC 0 at input 4.
2 | network_0/router_level3_1 | VC allocation failed for VC 0 at input 5.
2 | network_0/router_level3_1 | Assigning VC 0 at output 12 to VC 0 at input 6.
2 | network_0/router_level3_1 | Assigning VC 0 at output 8 to VC 0 at input 7.
2 | network_0/router_level3_1 | Completed VC allocation for VC 0 at input 3 (front: 1).
2 | network_0/router_level3_1 |   Acquiring assigned VC 0 at output 9.
2 | network_0/router_level3_1/buf_3/vc_0 | Changing state from vc_alloc to active.
2 | network_0/router_level3_1 | Completed VC allocation for VC 0 at input 4 (front: 2).
2 | network_0/router_level3_1 |   No output VC allocated.
2 | network_0/router_level3_1 | Completed VC allocation for VC 0 at input 5 (front: 3).
2 | network_0/router_level3_1 |   No output VC allocated.
2 | network_0/router_level3_1 | Completed VC allocation for VC 0 at input 6 (front: 4).
2 | network_0/router_level3_1 |   Acquiring assigned VC 0 at output 12.
2 | network_0/router_level3_1/buf_6/vc_0 | Changing state from vc_alloc to active.
2 | network_0/router_level3_1 | Completed VC allocation for VC 0 at input 7 (front: 5).
2 | network_0/router_level3_1 |   Acquiring assigned VC 0 at output 8.
2 | network_0/router_level3_1/buf_7/vc_0 | Changing state from vc_alloc to active.
2 | network_0/router_level3_2 | Adding flit 6 to VC 0 at input 2 (state: idle, empty).
2 | network_0/router_level3_2 | Using precomputed lookahead routing information for VC 0 at input 2 (front: 6).
2 | network_0/router_level3_2/buf_2/vc_0 | Changing state from idle to vc_alloc.
2 | network_0/router_level3_2 | Adding flit 7 to VC 0 at input 3 (state: idle, empty).
2 | network_0/router_level3_2 | Using precomputed lookahead routing information for VC 0 at input 3 (front: 7).
2 | network_0/router_level3_2/buf_3/vc_0 | Changing state from idle to vc_alloc.
2 | network_0/router_level3_2 | Adding flit 8 to VC 0 at input 4 (state: idle, empty).
2 | network_0/router_level3_2 | Using precomputed lookahead routing information for VC 0 at input 4 (front: 8).
2 | network_0/router_level3_2/buf_4/vc_0 | Changing state from idle to vc_alloc.
2 | network_0/router_level3_2 | Beginning VC allocation for VC 0 at input 2 (front: 6).
2 | network_0/router_level3_2 |   Requesting VC 0 at output 12 (in_pri: 0, out_pri: 0).
2 | network_0/router_level3_2 |   Requesting VC 1 at output 12 (in_pri: 0, out_pri: 0).
2 | network_0/router_level3_2 |   Requesting VC 2 at output 12 (in_pri: 0, out_pri: 0).
2 | network_0/router_level3_2 |   Requesting VC 3 at output 12 (in_pri: 0, out_pri: 0).
2 | network_0/router_level3_2 | Beginning VC allocation for VC 0 at input 3 (front: 7).
2 | network_0/router_level3_2 |   Requesting VC 0 at output 8 (in_pri: 0, out_pri: 0).
2 | network_0/router_level3_2 |   Requesting VC 1 at output 8 (in_pri: 0, out_pri: 0).
2 | network_0/router_level3_2 |   Requesting VC 2 at output 8 (in_pri: 0, out_pri: 0).
2 | network_0/router_level3_2 |   Requesting VC 3 at output 8 (in_pri: 0, out_pri: 0).
2 | network_0/router_level3_2 | Beginning VC allocation for VC 0 at input 4 (front: 8).
2 | network_0/router_level3_2 |   Requesting VC 0 at output 14 (in_pri: 0, out_pri: 0).
2 | network_0/router_level3_2 |   Requesting VC 1 at output 14 (in_pri: 0, out_pri: 0).
2 | network_0/router_level3_2 |   Requesting VC 2 at output 14 (in_pri: 0, out_pri: 0).
2 | network_0/router_level3_2 |   Requesting VC 3 at output 14 (in_pri: 0, out_pri: 0).
2 | network_0/router_level3_2/vc_allocator | Input requests = [ 8 -> [ 48@0 49@0 50@0 51@0 ]  12 -> [ 32@0 33@0 34@0 35@0 ]  16 -> [ 56@0 57@0 58@0 59@0 ]  ], output requests = [ 32 -> [ 12@0 ]  33 -> [ 12@0 ]  34 -> [ 12@0 ]  35 -> [ 12@0 ]  48 -> [ 8@0 ]  49 -> [ 8@0 ]  50 -> [ 8@0 ]  51 -> [ 8@0 ]  56 -> [ 16@0 ]  57 -> [ 16@0 ]  58 -> [ 16@0 ]  59 -> [ 16@0 ]  ].
2 | network_0/router_level3_2/vc_allocator | Input grants = [ 8 -> 48  12 -> 32  16 -> 56  ], output grants = [ 32 -> 12  48 -> 8  56 -> 16  ].
2 | network_0/router_level3_2 | Assigning VC 0 at output 12 to VC 0 at input 2.
2 | network_0/router_level3_2 | Assigning VC 0 at output 8 to VC 0 at input 3.
2 | network_0/router_level3_2 | Assigning VC 0 at output 14 to VC 0 at input 4.
2 | network_0/router_level3_2 | Completed VC allocation for VC 0 at input 2 (front: 6).
2 | network_0/router_level3_2 |   Acquiring assigned VC 0 at output 12.
2 | network_0/router_level3_2/buf_2/vc_0 | Changing state from vc_alloc to active.
2 | network_0/router_level3_2 | Completed VC allocation for VC 0 at input 3 (front: 7).
2 | network_0/router_level3_2 |   Acquiring assigned VC 0 at output 8.
2 | network_0/router_level3_2/buf_3/vc_0 | Changing state from vc_alloc to active.
2 | network_0/router_level3_2 | Completed VC allocation for VC 0 at input 4 (front: 8).
2 | network_0/router_level3_2 |   Acquiring assigned VC 0 at output 14.
2 | network_0/router_level3_2/buf_4/vc_0 | Changing state from vc_alloc to active.
2 | network_0/router_level3_3 | Adding flit 9 to VC 0 at input 6 (state: idle, empty).
2 | network_0/router_level3_3 | Using precomputed lookahead routing information for VC 0 at input 6 (front: 9).
2 | network_0/router_level3_3/buf_6/vc_0 | Changing state from idle to vc_alloc.
2 | network_0/router_level3_3 | Adding flit 10 to VC 0 at input 7 (state: idle, empty).
2 | network_0/router_level3_3 | Using precomputed lookahead routing information for VC 0 at input 7 (front: 10).
2 | network_0/router_level3_3/buf_7/vc_0 | Changing state from idle to vc_alloc.
2 | network_0/router_level3_3 | Beginning VC allocation for VC 0 at input 6 (front: 9).
2 | network_0/router_level3_3 |   Requesting VC 0 at output 14 (in_pri: 0, out_pri: 0).
2 | network_0/router_level3_3 |   Requesting VC 1 at output 14 (in_pri: 0, out_pri: 0).
2 | network_0/router_level3_3 |   Requesting VC 2 at output 14 (in_pri: 0, out_pri: 0).
2 | network_0/router_level3_3 |   Requesting VC 3 at output 14 (in_pri: 0, out_pri: 0).
2 | network_0/router_level3_3 | Beginning VC allocation for VC 0 at input 7 (front: 10).
2 | network_0/router_level3_3 |   Requesting VC 0 at output 13 (in_pri: 0, out_pri: 0).
2 | network_0/router_level3_3 |   Requesting VC 1 at output 13 (in_pri: 0, out_pri: 0).
2 | network_0/router_level3_3 |   Requesting VC 2 at output 13 (in_pri: 0, out_pri: 0).
2 | network_0/router_level3_3 |   Requesting VC 3 at output 13 (in_pri: 0, out_pri: 0).
2 | network_0/router_level3_3/vc_allocator | Input requests = [ 24 -> [ 56@0 57@0 58@0 59@0 ]  28 -> [ 52@0 53@0 54@0 55@0 ]  ], output requests = [ 52 -> [ 28@0 ]  53 -> [ 28@0 ]  54 -> [ 28@0 ]  55 -> [ 28@0 ]  56 -> [ 24@0 ]  57 -> [ 24@0 ]  58 -> [ 24@0 ]  59 -> [ 24@0 ]  ].
2 | network_0/router_level3_3/vc_allocator | Input grants = [ 24 -> 56  28 -> 52  ], output grants = [ 52 -> 28  56 -> 24  ].
2 | network_0/router_level3_3 | Assigning VC 0 at output 14 to VC 0 at input 6.
2 | network_0/router_level3_3 | Assigning VC 0 at output 13 to VC 0 at input 7.
2 | network_0/router_level3_3 | Completed VC allocation for VC 0 at input 6 (front: 9).
2 | network_0/router_level3_3 |   Acquiring assigned VC 0 at output 14.
2 | network_0/router_level3_3/buf_6/vc_0 | Changing state from vc_alloc to active.
2 | network_0/router_level3_3 | Completed VC allocation for VC 0 at input 7 (front: 10).
2 | network_0/router_level3_3 |   Acquiring assigned VC 0 at output 13.
2 | network_0/router_level3_3/buf_7/vc_0 | Changing state from vc_alloc to active.
3 | network_0/router_level3_1 | Beginning VC allocation for VC 0 at input 4 (front: 2).
3 | network_0/router_level3_1 |   VC 0 at output 14 is in use by VC 0 at input 1 (front flit: 0).
3 | network_0/router_level3_1 |   Requesting VC 1 at output 14 (in_pri: 0, out_pri: 0).
3 | network_0/router_level3_1 |   Requesting VC 2 at output 14 (in_pri: 0, out_pri: 0).
3 | network_0/router_level3_1 |   Requesting VC 3 at output 14 (in_pri: 0, out_pri: 0).
3 | network_0/router_level3_1 | Beginning VC allocation for VC 0 at input 5 (front: 3).
3 | network_0/router_level3_1 |   VC 0 at output 9 is in use by VC 0 at input 3 (front flit: 1).
3 | network_0/router_level3_1 |   Requesting VC 1 at output 9 (in_pri: 0, out_pri: 0).
3 | network_0/router_level3_1 |   Requesting VC 2 at output 9 (in_pri: 0, out_pri: 0).
3 | network_0/router_level3_1 |   Requesting VC 3 at output 9 (in_pri: 0, out_pri: 0).
3 | network_0/router_level3_1/vc_allocator | Input requests = [ 5 -> [ 37@0 38@0 39@0 ]  16 -> [ 57@0 58@0 59@0 ]  17 -> [ 57@0 58@0 59@0 ]  20 -> [ 37@0 38@0 39@0 ]  21 -> [ 37@0 38@0 39@0 ]  25 -> [ 40@0 41@0 42@0 43@0 ]  ], output requests = [ 37 -> [ 5@0 20@0 21@0 ]  38 -> [ 5@0 20@0 21@0 ]  39 -> [ 5@0 20@0 21@0 ]  40 -> [ 25@0 ]  41 -> [ 25@0 ]  42 -> [ 25@0 ]  43 -> [ 25@0 ]  57 -> [ 16@0 17@0 ]  58 -> [ 16@0 17@0 ]  59 -> [ 16@0 17@0 ]  ].
3 | network_0/router_level3_1/vc_allocator | Input grants = [ 5 -> 37  16 -> 57  25 -> 40  ], output grants = [ 37 -> 5  40 -> 25  57 -> 16  ].
3 | network_0/router_level3_1 | Assigning VC 1 at output 14 to VC 0 at input 4.
3 | network_0/router_level3_1 | VC allocation failed for VC 0 at input 5.
3 | network_0/router_level3_1 | Beginning switch allocation for VC 0 at input 3 (front: 1).
3 | network_0/router_level3_1 |   Requesting output 9.0 (non-spec, pri: 0).
3 | network_0/router_level3_1 | Beginning switch allocation for VC 0 at input 6 (front: 4).
3 | network_0/router_level3_1 |   Requesting output 12.0 (non-spec, pri: 0).
3 | network_0/router_level3_1 | Beginning switch allocation for VC 0 at input 7 (front: 5).
3 | network_0/router_level3_1 |   Requesting output 8.0 (non-spec, pri: 0).
3 | network_0/router_level3_1/sw_allocator | Input requests = [ 1 -> [ 14@0 ]  3 -> [ 9@0 ]  6 -> [ 12@0 ]  7 -> [ 8@0 ]  ], output requests = [ 8 -> [ 7@0 ]  9 -> [ 3@0 ]  12 -> [ 6@0 ]  14 -> [ 1@0 ]  ].
3 | network_0/router_level3_1/sw_allocator | Input grants = [ 1 -> 14  3 -> 9  6 -> 12  7 -> 8  ], output grants = [ 8 -> 7  9 -> 3  12 -> 6  14 -> 1  ].
3 | network_0/router_level3_1 | Assigning output 9.0 to VC 0 at input 3.0.
3 | network_0/router_level3_1 | Assigning output 12.0 to VC 0 at input 6.0.
3 | network_0/router_level3_1 | Assigning output 8.0 to VC 0 at input 7.0.
3 | network_0/router_level3_1 | Completed VC allocation for VC 0 at input 4 (front: 2).
3 | network_0/router_level3_1 |   Acquiring assigned VC 1 at output 14.
3 | network_0/router_level3_1/buf_4/vc_0 | Changing state from vc_alloc to active.
3 | network_0/router_level3_1 | Completed VC allocation for VC 0 at input 5 (front: 3).
3 | network_0/router_level3_1 |   No output VC allocated.
3 | network_0/router_level3_1 | Completed switch allocation for VC 0 at input 3 (front: 1).
3 | network_0/router_level3_1 |   Scheduling switch connection from input 3.0 to output 9.0.
3 | network_0/router_level3_1 | Updating lookahead routing information for flit 1.
3 | network_0/router_level3_1 | Completed switch allocation for VC 0 at input 6 (front: 4).
3 | network_0/router_level3_1 |   Scheduling switch connection from input 6.0 to output 12.0.
3 | network_0/router_level3_1 | Updating lookahead routing information for flit 4.
3 | network_0/router_level3_1 | Completed switch allocation for VC 0 at input 7 (front: 5).
3 | network_0/router_level3_1 |   Scheduling switch connection from input 7.0 to output 8.0.
3 | network_0/router_level3_1 | Updating lookahead routing information for flit 5.
3 | network_0/router_level3_2 | Beginning switch allocation for VC 0 at input 2 (front: 6).
3 | network_0/router_level3_2 |   Requesting output 12.0 (non-spec, pri: 0).
3 | network_0/router_level3_2 | Beginning switch allocation for VC 0 at input 3 (front: 7).
3 | network_0/router_level3_2 |   Requesting output 8.0 (non-spec, pri: 0).
3 | network_0/router_level3_2 | Beginning switch allocation for VC 0 at input 4 (front: 8).
3 | network_0/router_level3_2 |   Requesting output 14.0 (non-spec, pri: 0).
3 | network_0/router_level3_2/sw_allocator | Input requests = [ 2 -> [ 12@0 ]  3 -> [ 8@0 ]  4 -> [ 14@0 ]  ], output requests = [ 8 -> [ 3@0 ]  12 -> [ 2@0 ]  14 -> [ 4@0 ]  ].
3 | network_0/router_level3_2/sw_allocator | Input grants = [ 2 -> 12  3 -> 8  4 -> 14  ], output grants = [ 8 -> 3  12 -> 2  14 -> 4  ].
3 | network_0/router_level3_2 | Assigning output 12.0 to VC 0 at input 2.0.
3 | network_0/router_level3_2 | Assigning output 8.0 to VC 0 at input 3.0.
3 | network_0/router_level3_2 | Assigning output 14.0 to VC 0 at input 4.0.
3 | network_0/router_level3_2 | Completed switch allocation for VC 0 at input 2 (front: 6).
3 | network_0/router_level3_2 |   Scheduling switch connection from input 2.0 to output 12.0.
3 | network_0/router_level3_2 | Updating lookahead routing information for flit 6.
3 | network_0/router_level3_2 | Completed switch allocation for VC 0 at input 3 (front: 7).
3 | network_0/router_level3_2 |   Scheduling switch connection from input 3.0 to output 8.0.
3 | network_0/router_level3_2 | Updating lookahead routing information for flit 7.
3 | network_0/router_level3_2 | Completed switch allocation for VC 0 at input 4 (front: 8).
3 | network_0/router_level3_2 |   Scheduling switch connection from input 4.0 to output 14.0.
3 | network_0/router_level3_2 | Updating lookahead routing information for flit 8.
3 | network_0/router_level3_3 | Beginning switch allocation for VC 0 at input 6 (front: 9).
3 | network_0/router_level3_3 |   Requesting output 14.0 (non-spec, pri: 0).
3 | network_0/router_level3_3 | Beginning switch allocation for VC 0 at input 7 (front: 10).
3 | network_0/router_level3_3 |   Requesting output 13.0 (non-spec, pri: 0).
3 | network_0/router_level3_3/sw_allocator | Input requests = [ 6 -> [ 14@0 ]  7 -> [ 13@0 ]  ], output requests = [ 13 -> [ 7@0 ]  14 -> [ 6@0 ]  ].
3 | network_0/router_level3_3/sw_allocator | Input grants = [ 6 -> 14  7 -> 13  ], output grants = [ 13 -> 7  14 -> 6  ].
3 | network_0/router_level3_3 | Assigning output 14.0 to VC 0 at input 6.0.
3 | network_0/router_level3_3 | Assigning output 13.0 to VC 0 at input 7.0.
3 | network_0/router_level3_3 | Completed switch allocation for VC 0 at input 6 (front: 9).
3 | network_0/router_level3_3 |   Scheduling switch connection from input 6.0 to output 14.0.
3 | network_0/router_level3_3 | Updating lookahead routing information for flit 9.
3 | network_0/router_level3_3 | Completed switch allocation for VC 0 at input 7 (front: 10).
3 | network_0/router_level3_3 |   Scheduling switch connection from input 7.0 to output 13.0.
3 | network_0/router_level3_3 | Updating lookahead routing information for flit 10.
4 | network_0/router_level3_1 | Beginning VC allocation for VC 0 at input 5 (front: 3).
4 | network_0/router_level3_1 |   Requesting VC 0 at output 9 (in_pri: 0, out_pri: 0).
4 | network_0/router_level3_1 |   VC 1 at output 9 is in use by VC 1 at input 1 (front flit: 1381).
4 | network_0/router_level3_1 |   Requesting VC 2 at output 9 (in_pri: 0, out_pri: 0).
4 | network_0/router_level3_1 |   Requesting VC 3 at output 9 (in_pri: 0, out_pri: 0).
4 | network_0/router_level3_1/vc_allocator | Input requests = [ 6 -> [ 32@0 33@0 34@0 35@0 ]  17 -> [ 56@0 58@0 59@0 ]  20 -> [ 36@0 38@0 39@0 ]  21 -> [ 36@0 38@0 39@0 ]  22 -> [ 36@0 38@0 39@0 ]  ], output requests = [ 32 -> [ 6@0 ]  33 -> [ 6@0 ]  34 -> [ 6@0 ]  35 -> [ 6@0 ]  36 -> [ 20@0 21@0 22@0 ]  38 -> [ 20@0 21@0 22@0 ]  39 -> [ 20@0 21@0 22@0 ]  56 -> [ 17@0 ]  58 -> [ 17@0 ]  59 -> [ 17@0 ]  ].
4 | network_0/router_level3_1/vc_allocator | Input grants = [ 6 -> 32  17 -> 56  20 -> 36  ], output grants = [ 32 -> 6  36 -> 20  56 -> 17  ].
4 | network_0/router_level3_1 | Assigning VC 0 at output 9 to VC 0 at input 5.
4 | network_0/router_level3_1 | Beginning switch allocation for VC 0 at input 4 (front: 2).
4 | network_0/router_level3_1 |   Requesting output 14.0 (non-spec, pri: 0).
4 | network_0/router_level3_1/sw_allocator | Input requests = [ 1 -> [ 9@0 ]  4 -> [ 14@0 ]  6 -> [ 10@0 ]  ], output requests = [ 9 -> [ 1@0 ]  10 -> [ 6@0 ]  14 -> [ 4@0 ]  ].
4 | network_0/router_level3_1/sw_allocator | Input grants = [ 1 -> 9  4 -> 14  6 -> 10  ], output grants = [ 9 -> 1  10 -> 6  14 -> 4  ].
4 | network_0/router_level3_1 | Assigning output 14.0 to VC 0 at input 4.0.
4 | network_0/router_level3_1 | Beginning crossbar traversal for flit 1 from input 3.0 to output 9.0.
4 | network_0/router_level3_1 | Beginning crossbar traversal for flit 4 from input 6.0 to output 12.0.
4 | network_0/router_level3_1 | Beginning crossbar traversal for flit 5 from input 7.0 to output 8.0.
4 | network_0/router_level3_1 | Completed VC allocation for VC 0 at input 5 (front: 3).
4 | network_0/router_level3_1 |   Acquiring assigned VC 0 at output 9.
4 | network_0/router_level3_1/buf_5/vc_0 | Changing state from vc_alloc to active.
4 | network_0/router_level3_1 | Completed switch allocation for VC 0 at input 4 (front: 2).
4 | network_0/router_level3_1 |   Scheduling switch connection from input 4.0 to output 14.0.
4 | network_0/router_level3_1 | Updating lookahead routing information for flit 2.
4 | network_0/router_level3_1 | Completed crossbar traversal for flit 1 from input 3.0 to output 9.0.
4 | network_0/router_level3_1 | Buffering flit 1 at output 9.
4 | network_0/router_level3_1 | Completed crossbar traversal for flit 4 from input 6.0 to output 12.0.
4 | network_0/router_level3_1 | Buffering flit 4 at output 12.
4 | network_0/router_level3_1 | Completed crossbar traversal for flit 5 from input 7.0 to output 8.0.
4 | network_0/router_level3_1 | Buffering flit 5 at output 8.
4 | network_0/router_level3_2 | Beginning crossbar traversal for flit 6 from input 2.0 to output 12.0.
4 | network_0/router_level3_2 | Beginning crossbar traversal for flit 7 from input 3.0 to output 8.0.
4 | network_0/router_level3_2 | Beginning crossbar traversal for flit 8 from input 4.0 to output 14.0.
4 | network_0/router_level3_2 | Completed crossbar traversal for flit 6 from input 2.0 to output 12.0.
4 | network_0/router_level3_2 | Buffering flit 6 at output 12.
4 | network_0/router_level3_2 | Completed crossbar traversal for flit 7 from input 3.0 to output 8.0.
4 | network_0/router_level3_2 | Buffering flit 7 at output 8.
4 | network_0/router_level3_2 | Completed crossbar traversal for flit 8 from input 4.0 to output 14.0.
4 | network_0/router_level3_2 | Buffering flit 8 at output 14.
4 | network_0/router_level3_3 | Beginning crossbar traversal for flit 9 from input 6.0 to output 14.0.
4 | network_0/router_level3_3 | Beginning crossbar traversal for flit 10 from input 7.0 to output 13.0.
4 | network_0/router_level3_3 | Completed crossbar traversal for flit 9 from input 6.0 to output 14.0.
4 | network_0/router_level3_3 | Buffering flit 9 at output 14.
4 | network_0/router_level3_3 | Completed crossbar traversal for flit 10 from input 7.0 to output 13.0.
4 | network_0/router_level3_3 | Buffering flit 10 at output 13.
4 | network_0/router_level3_1 | Sending flit 5 to channel at output 8.
4 | network_0/router_level3_1 | Sending flit 1 to channel at output 9.
4 | network_0/router_level3_1 | Sending flit 4 to channel at output 12.
4 | network_0/router_level3_2 | Sending flit 7 to channel at output 8.
4 | network_0/router_level3_2 | Sending flit 6 to channel at output 12.
4 | network_0/router_level3_2 | Sending flit 8 to channel at output 14.
4 | network_0/router_level3_3 | Sending flit 10 to channel at output 13.
4 | network_0/router_level3_3 | Sending flit 9 to channel at output 14.
5 | network_0/network_0_fchan_20488 | Beginning channel traversal for flit 5 with delay 1.
5 | network_0/network_0_fchan_20489 | Beginning channel traversal for flit 1 with delay 1.
5 | network_0/network_0_fchan_20492 | Beginning channel traversal for flit 4 with delay 1.
5 | network_0/network_0_fchan_20496 | Beginning channel traversal for flit 7 with delay 1.
5 | network_0/network_0_fchan_20500 | Beginning channel traversal for flit 6 with delay 1.
5 | network_0/network_0_fchan_20502 | Beginning channel traversal for flit 8 with delay 1.
5 | network_0/network_0_fchan_20509 | Beginning channel traversal for flit 10 with delay 1.
5 | network_0/network_0_fchan_20510 | Beginning channel traversal for flit 9 with delay 1.
5 | network_0/router_level3_1 | Beginning switch allocation for VC 0 at input 5 (front: 3).
5 | network_0/router_level3_1 |   Requesting output 9.0 (non-spec, pri: 0).
5 | network_0/router_level3_1/sw_allocator | Input requests = [ 1 -> [ 8@0 ]  4 -> [ 14@0 ]  5 -> [ 9@0 ]  ], output requests = [ 8 -> [ 1@0 ]  9 -> [ 5@0 ]  14 -> [ 4@0 ]  ].
5 | network_0/router_level3_1/sw_allocator | Input grants = [ 1 -> 8  4 -> 14  5 -> 9  ], output grants = [ 8 -> 1  9 -> 5  14 -> 4  ].
5 | network_0/router_level3_1 | Assigning output 9.0 to VC 0 at input 5.0.
5 | network_0/router_level3_1 | Beginning crossbar traversal for flit 2 from input 4.0 to output 14.0.
5 | network_0/router_level3_1 | Completed switch allocation for VC 0 at input 5 (front: 3).
5 | network_0/router_level3_1 |   Scheduling switch connection from input 5.0 to output 9.0.
5 | network_0/router_level3_1 | Updating lookahead routing information for flit 3.
5 | network_0/router_level3_1 | Completed crossbar traversal for flit 2 from input 4.0 to output 14.0.
5 | network_0/router_level3_1 | Buffering flit 2 at output 14.
5 | network_0/network_0_fchan_20488 | Completed channel traversal for flit 5.
5 | network_0/network_0_fchan_20489 | Completed channel traversal for flit 1.
5 | network_0/network_0_fchan_20492 | Completed channel traversal for flit 4.
5 | network_0/network_0_fchan_20496 | Completed channel traversal for flit 7.
5 | network_0/network_0_fchan_20500 | Completed channel traversal for flit 6.
5 | network_0/network_0_fchan_20502 | Completed channel traversal for flit 8.
5 | network_0/network_0_fchan_20509 | Completed channel traversal for flit 10.
5 | network_0/network_0_fchan_20510 | Completed channel traversal for flit 9.
5 | network_0/router_level3_1 | Sending flit 2 to channel at output 14.
6 | network_0/network_0_fchan_20494 | Beginning channel traversal for flit 2 with delay 1.
6 | network_0/router_level2_0 | Received flit 5 from channel at input 1.
6 | network_0/router_level2_0 | Received flit 7 from channel at input 2.
6 | network_0/router_level2_1 | Received flit 1 from channel at input 1.
6 | network_0/router_level2_4 | Received flit 4 from channel at input 1.
6 | network_0/router_level2_4 | Received flit 6 from channel at input 2.
6 | network_0/router_level2_5 | Received flit 10 from channel at input 3.
6 | network_0/router_level2_6 | Received flit 8 from channel at input 2.
6 | network_0/router_level2_6 | Received flit 9 from channel at input 3.
6 | network_0/router_level2_0 | Adding flit 5 to VC 0 at input 1 (state: idle, empty).
6 | network_0/router_level2_0 | Using precomputed lookahead routing information for VC 0 at input 1 (front: 5).
6 | network_0/router_level2_0/buf_1/vc_0 | Changing state from idle to vc_alloc.
6 | network_0/router_level2_0 | Adding flit 7 to VC 0 at input 2 (state: idle, empty).
6 | network_0/router_level2_0 | Using precomputed lookahead routing information for VC 0 at input 2 (front: 7).
6 | network_0/router_level2_0/buf_2/vc_0 | Changing state from idle to vc_alloc.
6 | network_0/router_level2_0 | Beginning VC allocation for VC 0 at input 1 (front: 5).
6 | network_0/router_level2_0 |   Requesting VC 0 at output 12 (in_pri: 0, out_pri: 0).
6 | network_0/router_level2_0 |   Requesting VC 1 at output 12 (in_pri: 0, out_pri: 0).
6 | network_0/router_level2_0 |   Requesting VC 2 at output 12 (in_pri: 0, out_pri: 0).
6 | network_0/router_level2_0 |   Requesting VC 3 at output 12 (in_pri: 0, out_pri: 0).
6 | network_0/router_level2_0 | Beginning VC allocation for VC 0 at input 2 (front: 7).
6 | network_0/router_level2_0 |   Requesting VC 0 at output 15 (in_pri: 0, out_pri: 0).
6 | network_0/router_level2_0 |   Requesting VC 1 at output 15 (in_pri: 0, out_pri: 0).
6 | network_0/router_level2_0 |   Requesting VC 2 at output 15 (in_pri: 0, out_pri: 0).
6 | network_0/router_level2_0 |   Requesting VC 3 at output 15 (in_pri: 0, out_pri: 0).
6 | network_0/router_level2_0/vc_allocator | Input requests = [ 4 -> [ 48@0 49@0 50@0 51@0 ]  8 -> [ 60@0 61@0 62@0 63@0 ]  24 -> [ 60@0 61@0 62@0 63@0 ]  ], output requests = [ 48 -> [ 4@0 ]  49 -> [ 4@0 ]  50 -> [ 4@0 ]  51 -> [ 4@0 ]  60 -> [ 8@0 24@0 ]  61 -> [ 8@0 24@0 ]  62 -> [ 8@0 24@0 ]  63 -> [ 8@0 24@0 ]  ].
6 | network_0/router_level2_0/vc_allocator | Input grants = [ 4 -> 48  8 -> 60  ], output grants = [ 48 -> 4  60 -> 8  ].
6 | network_0/router_level2_0 | Assigning VC 0 at output 12 to VC 0 at input 1.
6 | network_0/router_level2_0 | Assigning VC 0 at output 15 to VC 0 at input 2.
6 | network_0/router_level2_0 | Completed VC allocation for VC 0 at input 1 (front: 5).
6 | network_0/router_level2_0 |   Acquiring assigned VC 0 at output 12.
6 | network_0/router_level2_0/buf_1/vc_0 | Changing state from vc_alloc to active.
6 | network_0/router_level2_0 | Completed VC allocation for VC 0 at input 2 (front: 7).
6 | network_0/router_level2_0 |   Acquiring assigned VC 0 at output 15.
6 | network_0/router_level2_0/buf_2/vc_0 | Changing state from vc_alloc to active.
6 | network_0/router_level2_1 | Adding flit 1 to VC 0 at input 1 (state: idle, empty).
6 | network_0/router_level2_1 | Using precomputed lookahead routing information for VC 0 at input 1 (front: 1).
6 | network_0/router_level2_1/buf_1/vc_0 | Changing state from idle to vc_alloc.
6 | network_0/router_level2_1 | Beginning VC allocation for VC 0 at input 1 (front: 1).
6 | network_0/router_level2_1 |   Requesting VC 0 at output 13 (in_pri: 0, out_pri: 0).
6 | network_0/router_level2_1 |   Requesting VC 1 at output 13 (in_pri: 0, out_pri: 0).
6 | network_0/router_level2_1 |   Requesting VC 2 at output 13 (in_pri: 0, out_pri: 0).
6 | network_0/router_level2_1 |   Requesting VC 3 at output 13 (in_pri: 0, out_pri: 0).
6 | network_0/router_level2_1/vc_allocator | Input requests = [ 4 -> [ 52@0 53@0 54@0 55@0 ]  24 -> [ 48@0 49@0 50@0 51@0 ]  ], output requests = [ 48 -> [ 24@0 ]  49 -> [ 24@0 ]  50 -> [ 24@0 ]  51 -> [ 24@0 ]  52 -> [ 4@0 ]  53 -> [ 4@0 ]  54 -> [ 4@0 ]  55 -> [ 4@0 ]  ].
6 | network_0/router_level2_1/vc_allocator | Input grants = [ 4 -> 52  24 -> 48  ], output grants = [ 48 -> 24  52 -> 4  ].
6 | network_0/router_level2_1 | Assigning VC 0 at output 13 to VC 0 at input 1.
6 | network_0/router_level2_1 | Completed VC allocation for VC 0 at input 1 (front: 1).
6 | network_0/router_level2_1 |   Acquiring assigned VC 0 at output 13.
6 | network_0/router_level2_1/buf_1/vc_0 | Changing state from vc_alloc to active.
6 | network_0/router_level2_4 | Adding flit 4 to VC 0 at input 1 (state: idle, empty).
6 | network_0/router_level2_4 | Using precomputed lookahead routing information for VC 0 at input 1 (front: 4).
6 | network_0/router_level2_4/buf_1/vc_0 | Changing state from idle to vc_alloc.
6 | network_0/router_level2_4 | Adding flit 6 to VC 0 at input 2 (state: idle, empty).
6 | network_0/router_level2_4 | Using precomputed lookahead routing information for VC 0 at input 2 (front: 6).
6 | network_0/router_level2_4/buf_2/vc_0 | Changing state from idle to vc_alloc.
6 | network_0/router_level2_4 | Beginning VC allocation for VC 0 at input 1 (front: 4).
6 | network_0/router_level2_4 |   Requesting VC 0 at output 9 (in_pri: 0, out_pri: 0).
6 | network_0/router_level2_4 |   Requesting VC 1 at output 9 (in_pri: 0, out_pri: 0).
6 | network_0/router_level2_4 |   Requesting VC 2 at output 9 (in_pri: 0, out_pri: 0).
6 | network_0/router_level2_4 |   Requesting VC 3 at output 9 (in_pri: 0, out_pri: 0).
6 | network_0/router_level2_4 | Beginning VC allocation for VC 0 at input 2 (front: 6).
6 | network_0/router_level2_4 |   Requesting VC 0 at output 14 (in_pri: 0, out_pri: 0).
6 | network_0/router_level2_4 |   Requesting VC 1 at output 14 (in_pri: 0, out_pri: 0).
6 | network_0/router_level2_4 |   Requesting VC 2 at output 14 (in_pri: 0, out_pri: 0).
6 | network_0/router_level2_4 |   Requesting VC 3 at output 14 (in_pri: 0, out_pri: 0).
6 | network_0/router_level2_4/vc_allocator | Input requests = [ 4 -> [ 36@0 37@0 38@0 39@0 ]  8 -> [ 56@0 57@0 58@0 59@0 ]  28 -> [ 52@0 53@0 54@0 55@0 ]  ], output requests = [ 36 -> [ 4@0 ]  37 -> [ 4@0 ]  38 -> [ 4@0 ]  39 -> [ 4@0 ]  52 -> [ 28@0 ]  53 -> [ 28@0 ]  54 -> [ 28@0 ]  55 -> [ 28@0 ]  56 -> [ 8@0 ]  57 -> [ 8@0 ]  58 -> [ 8@0 ]  59 -> [ 8@0 ]  ].
6 | network_0/router_level2_4/vc_allocator | Input grants = [ 4 -> 36  8 -> 56  28 -> 52  ], output grants = [ 36 -> 4  52 -> 28  56 -> 8  ].
6 | network_0/router_level2_4 | Assigning VC 0 at output 9 to VC 0 at input 1.
6 | network_0/router_level2_4 | Assigning VC 0 at output 14 to VC 0 at input 2.
6 | network_0/router_level2_4 | Completed VC allocation for VC 0 at input 1 (front: 4).
6 | network_0/router_level2_4 |   Acquiring assigned VC 0 at output 9.
6 | network_0/router_level2_4/buf_1/vc_0 | Changing state from vc_alloc to active.
6 | network_0/router_level2_4 | Completed VC allocation for VC 0 at input 2 (front: 6).
6 | network_0/router_level2_4 |   Acquiring assigned VC 0 at output 14.
6 | network_0/router_level2_4/buf_2/vc_0 | Changing state from vc_alloc to active.
6 | network_0/router_level2_5 | Adding flit 10 to VC 0 at input 3 (state: idle, empty).
6 | network_0/router_level2_5 | Using precomputed lookahead routing information for VC 0 at input 3 (front: 10).
6 | network_0/router_level2_5/buf_3/vc_0 | Changing state from idle to vc_alloc.
6 | network_0/router_level2_5 | Beginning VC allocation for VC 0 at input 3 (front: 10).
6 | network_0/router_level2_5 |   Requesting VC 0 at output 14 (in_pri: 0, out_pri: 0).
6 | network_0/router_level2_5 |   Requesting VC 1 at output 14 (in_pri: 0, out_pri: 0).
6 | network_0/router_level2_5 |   Requesting VC 2 at output 14 (in_pri: 0, out_pri: 0).
6 | network_0/router_level2_5 |   Requesting VC 3 at output 14 (in_pri: 0, out_pri: 0).
6 | network_0/router_level2_5/vc_allocator | Input requests = [ 12 -> [ 56@0 57@0 58@0 59@0 ]  16 -> [ 32@0 33@0 34@0 35@0 ]  20 -> [ 60@0 61@0 62@0 63@0 ]  ], output requests = [ 32 -> [ 16@0 ]  33 -> [ 16@0 ]  34 -> [ 16@0 ]  35 -> [ 16@0 ]  56 -> [ 12@0 ]  57 -> [ 12@0 ]  58 -> [ 12@0 ]  59 -> [ 12@0 ]  60 -> [ 20@0 ]  61 -> [ 20@0 ]  62 -> [ 20@0 ]  63 -> [ 20@0 ]  ].
6 | network_0/router_level2_5/vc_allocator | Input grants = [ 12 -> 56  16 -> 32  20 -> 60  ], output grants = [ 32 -> 16  56 -> 12  60 -> 20  ].
6 | network_0/router_level2_5 | Assigning VC 0 at output 14 to VC 0 at input 3.
6 | network_0/router_level2_5 | Completed VC allocation for VC 0 at input 3 (front: 10).
6 | network_0/router_level2_5 |   Acquiring assigned VC 0 at output 14.
6 | network_0/router_level2_5/buf_3/vc_0 | Changing state from vc_alloc to active.
6 | network_0/router_level2_6 | Adding flit 8 to VC 0 at input 2 (state: idle, empty).
6 | network_0/router_level2_6 | Using precomputed lookahead routing information for VC 0 at input 2 (front: 8).
6 | network_0/router_level2_6/buf_2/vc_0 | Changing state from idle to vc_alloc.
6 | network_0/router_level2_6 | Adding flit 9 to VC 0 at input 3 (state: idle, empty).
6 | network_0/router_level2_6 | Using precomputed lookahead routing information for VC 0 at input 3 (front: 9).
6 | network_0/router_level2_6/buf_3/vc_0 | Changing state from idle to vc_alloc.
6 | network_0/router_level2_6 | Beginning VC allocation for VC 0 at input 2 (front: 8).
6 | network_0/router_level2_6 |   Requesting VC 0 at output 9 (in_pri: 0, out_pri: 0).
6 | network_0/router_level2_6 |   Requesting VC 1 at output 9 (in_pri: 0, out_pri: 0).
6 | network_0/router_level2_6 |   Requesting VC 2 at output 9 (in_pri: 0, out_pri: 0).
6 | network_0/router_level2_6 |   Requesting VC 3 at output 9 (in_pri: 0, out_pri: 0).
6 | network_0/router_level2_6 | Beginning VC allocation for VC 0 at input 3 (front: 9).
6 | network_0/router_level2_6 |   Requesting VC 0 at output 11 (in_pri: 0, out_pri: 0).
6 | network_0/router_level2_6 |   Requesting VC 1 at output 11 (in_pri: 0, out_pri: 0).
6 | network_0/router_level2_6 |   Requesting VC 2 at output 11 (in_pri: 0, out_pri: 0).
6 | network_0/router_level2_6 |   Requesting VC 3 at output 11 (in_pri: 0, out_pri: 0).
6 | network_0/router_level2_6/vc_allocator | Input requests = [ 4 -> [ 44@0 45@0 46@0 47@0 ]  8 -> [ 36@0 37@0 38@0 39@0 ]  12 -> [ 44@0 45@0 46@0 47@0 ]  28 -> [ 60@0 61@0 62@0 63@0 ]  ], output requests = [ 36 -> [ 8@0 ]  37 -> [ 8@0 ]  38 -> [ 8@0 ]  39 -> [ 8@0 ]  44 -> [ 4@0 12@0 ]  45 -> [ 4@0 12@0 ]  46 -> [ 4@0 12@0 ]  47 -> [ 4@0 12@0 ]  60 -> [ 28@0 ]  61 -> [ 28@0 ]  62 -> [ 28@0 ]  63 -> [ 28@0 ]  ].
6 | network_0/router_level2_6/vc_allocator | Input grants = [ 4 -> 44  8 -> 36  28 -> 60  ], output grants = [ 36 -> 8  44 -> 4  60 -> 28  ].
6 | network_0/router_level2_6 | Assigning VC 0 at output 9 to VC 0 at input 2.
6 | network_0/router_level2_6 | VC allocation failed for VC 0 at input 3.
6 | network_0/router_level2_6 | Completed VC allocation for VC 0 at input 2 (front: 8).
6 | network_0/router_level2_6 |   Acquiring assigned VC 0 at output 9.
6 | network_0/router_level2_6/buf_2/vc_0 | Changing state from vc_alloc to active.
6 | network_0/router_level2_6 | Completed VC allocation for VC 0 at input 3 (front: 9).
6 | network_0/router_level2_6 |   No output VC allocated.
6 | network_0/router_level3_1 | Beginning crossbar traversal for flit 3 from input 5.0 to output 9.0.
6 | network_0/router_level3_1 | Completed crossbar traversal for flit 3 from input 5.0 to output 9.0.
6 | network_0/router_level3_1 | Buffering flit 3 at output 9.
6 | network_0/network_0_fchan_20494 | Completed channel traversal for flit 2.
6 | network_0/router_level3_1 | Sending flit 3 to channel at output 9.
7 | network_0/network_0_fchan_20489 | Beginning channel traversal for flit 3 with delay 1.
7 | network_0/router_level2_6 | Received flit 2 from channel at input 1.
7 | network_0/router_level2_0 | Beginning switch allocation for VC 0 at input 1 (front: 5).
7 | network_0/router_level2_0 |   Requesting output 12.0 (non-spec, pri: 0).
7 | network_0/router_level2_0 | Beginning switch allocation for VC 0 at input 2 (front: 7).
7 | network_0/router_level2_0 |   Requesting output 15.0 (non-spec, pri: 0).
7 | network_0/router_level2_0/sw_allocator | Input requests = [ 1 -> [ 12@0 ]  2 -> [ 15@0 ]  ], output requests = [ 12 -> [ 1@0 ]  15 -> [ 2@0 ]  ].
7 | network_0/router_level2_0/sw_allocator | Input grants = [ 1 -> 12  2 -> 15  ], output grants = [ 12 -> 1  15 -> 2  ].
7 | network_0/router_level2_0 | Assigning output 12.0 to VC 0 at input 1.0.
7 | network_0/router_level2_0 | Assigning output 15.0 to VC 0 at input 2.0.
7 | network_0/router_level2_0 | Completed switch allocation for VC 0 at input 1 (front: 5).
7 | network_0/router_level2_0 |   Scheduling switch connection from input 1.0 to output 12.0.
7 | network_0/router_level2_0 | Updating lookahead routing information for flit 5.
7 | network_0/router_level2_0 | Completed switch allocation for VC 0 at input 2 (front: 7).
7 | network_0/router_level2_0 |   Scheduling switch connection from input 2.0 to output 15.0.
7 | network_0/router_level2_0 | Updating lookahead routing information for flit 7.
7 | network_0/router_level2_1 | Beginning switch allocation for VC 0 at input 1 (front: 1).
7 | network_0/router_level2_1 |   Requesting output 13.0 (non-spec, pri: 0).
7 | network_0/router_level2_1/sw_allocator | Input requests = [ 1 -> [ 13@0 ]  6 -> [ 12@0 ]  ], output requests = [ 12 -> [ 6@0 ]  13 -> [ 1@0 ]  ].
7 | network_0/router_level2_1/sw_allocator | Input grants = [ 1 -> 13  6 -> 12  ], output grants = [ 12 -> 6  13 -> 1  ].
7 | network_0/router_level2_1 | Assigning output 13.0 to VC 0 at input 1.0.
7 | network_0/router_level2_1 | Completed switch allocation for VC 0 at input 1 (front: 1).
7 | network_0/router_level2_1 |   Scheduling switch connection from input 1.0 to output 13.0.
7 | network_0/router_level2_1 | Updating lookahead routing information for flit 1.
7 | network_0/router_level2_4 | Beginning switch allocation for VC 0 at input 1 (front: 4).
7 | network_0/router_level2_4 |   Requesting output 9.0 (non-spec, pri: 0).
7 | network_0/router_level2_4 | Beginning switch allocation for VC 0 at input 2 (front: 6).
7 | network_0/router_level2_4 |   Requesting output 14.0 (non-spec, pri: 0).
7 | network_0/router_level2_4/sw_allocator | Input requests = [ 1 -> [ 9@0 ]  2 -> [ 14@0 ]  7 -> [ 13@0 ]  ], output requests = [ 9 -> [ 1@0 ]  13 -> [ 7@0 ]  14 -> [ 2@0 ]  ].
7 | network_0/router_level2_4/sw_allocator | Input grants = [ 1 -> 9  2 -> 14  7 -> 13  ], output grants = [ 9 -> 1  13 -> 7  14 -> 2  ].
7 | network_0/router_level2_4 | Assigning output 9.0 to VC 0 at input 1.0.
7 | network_0/router_level2_4 | Assigning output 14.0 to VC 0 at input 2.0.
7 | network_0/router_level2_4 | Completed switch allocation for VC 0 at input 1 (front: 4).
7 | network_0/router_level2_4 |   Scheduling switch connection from input 1.0 to output 9.0.
7 | network_0/router_level2_4 | Updating lookahead routing information for flit 4.
7 | network_0/router_level2_4 | Completed switch allocation for VC 0 at input 2 (front: 6).
7 | network_0/router_level2_4 |   Scheduling switch connection from input 2.0 to output 14.0.
7 | network_0/router_level2_4 | Updating lookahead routing information for flit 6.
7 | network_0/router_level2_5 | Beginning switch allocation for VC 0 at input 3 (front: 10).
7 | network_0/router_level2_5 |   Requesting output 14.0 (non-spec, pri: 0).
7 | network_0/router_level2_5/sw_allocator | Input requests = [ 3 -> [ 14@0 ]  4 -> [ 8@0 ]  5 -> [ 15@0 ]  ], output requests = [ 8 -> [ 4@0 ]  14 -> [ 3@0 ]  15 -> [ 5@0 ]  ].
7 | network_0/router_level2_5/sw_allocator | Input grants = [ 3 -> 14  4 -> 8  5 -> 15  ], output grants = [ 8 -> 4  14 -> 3  15 -> 5  ].
7 | network_0/router_level2_5 | Assigning output 14.0 to VC 0 at input 3.0.
7 | network_0/router_level2_5 | Completed switch allocation for VC 0 at input 3 (front: 10).
7 | network_0/router_level2_5 |   Scheduling switch connection from input 3.0 to output 14.0.
7 | network_0/router_level2_5 | Updating lookahead routing information for flit 10.
7 | network_0/router_level2_6 | Adding flit 2 to VC 1 at input 1 (state: idle, empty).
7 | network_0/router_level2_6 | Using precomputed lookahead routing information for VC 1 at input 1 (front: 2).
7 | network_0/router_level2_6/buf_1/vc_1 | Changing state from idle to vc_alloc.
7 | network_0/router_level2_6 | Beginning VC allocation for VC 0 at input 3 (front: 9).
7 | network_0/router_level2_6 |   VC 0 at output 11 is in use by VC 0 at input 1 (front flit: 0).
7 | network_0/router_level2_6 |   Requesting VC 1 at output 11 (in_pri: 0, out_pri: 0).
7 | network_0/router_level2_6 |   Requesting VC 2 at output 11 (in_pri: 0, out_pri: 0).
7 | network_0/router_level2_6 |   Requesting VC 3 at output 11 (in_pri: 0, out_pri: 0).
7 | network_0/router_level2_6 | Beginning VC allocation for VC 1 at input 1 (front: 2).
7 | network_0/router_level2_6 |   Requesting VC 0 at output 14 (in_pri: 0, out_pri: 0).
7 | network_0/router_level2_6 |   Requesting VC 1 at output 14 (in_pri: 0, out_pri: 0).
7 | network_0/router_level2_6 |   Requesting VC 2 at output 14 (in_pri: 0, out_pri: 0).
7 | network_0/router_level2_6 |   Requesting VC 3 at output 14 (in_pri: 0, out_pri: 0).
7 | network_0/router_level2_6/vc_allocator | Input requests = [ 5 -> [ 56@0 57@0 58@0 59@0 ]  9 -> [ 56@0 57@0 58@0 59@0 ]  12 -> [ 45@0 46@0 47@0 ]  16 -> [ 32@0 33@0 34@0 35@0 ]  24 -> [ 52@0 53@0 54@0 55@0 ]  29 -> [ 61@0 62@0 63@0 ]  ], output requests = [ 32 -> [ 16@0 ]  33 -> [ 16@0 ]  34 -> [ 16@0 ]  35 -> [ 16@0 ]  45 -> [ 12@0 ]  46 -> [ 12@0 ]  47 -> [ 12@0 ]  52 -> [ 24@0 ]  53 -> [ 24@0 ]  54 -> [ 24@0 ]  55 -> [ 24@0 ]  56 -> [ 5@0 9@0 ]  57 -> [ 5@0 9@0 ]  58 -> [ 5@0 9@0 ]  59 -> [ 5@0 9@0 ]  61 -> [ 29@0 ]  62 -> [ 29@0 ]  63 -> [ 29@0 ]  ].
7 | network_0/router_level2_6/vc_allocator | Input grants = [ 5 -> 56  12 -> 45  16 -> 32  24 -> 52  29 -> 61  ], output grants = [ 32 -> 16  45 -> 12  52 -> 24  56 -> 5  61 -> 29  ].
7 | network_0/router_level2_6 | Assigning VC 1 at output 11 to VC 0 at input 3.
7 | network_0/router_level2_6 | Assigning VC 0 at output 14 to VC 1 at input 1.
7 | network_0/router_level2_6 | Beginning switch allocation for VC 0 at input 2 (front: 8).
7 | network_0/router_level2_6 |   Requesting output 9.0 (non-spec, pri: 0).
7 | network_0/router_level2_6/sw_allocator | Input requests = [ 1 -> [ 11@0 ]  2 -> [ 9@0 ]  7 -> [ 15@0 ]  ], output requests = [ 9 -> [ 2@0 ]  11 -> [ 1@0 ]  15 -> [ 7@0 ]  ].
7 | network_0/router_level2_6/sw_allocator | Input grants = [ 1 -> 11  2 -> 9  7 -> 15  ], output grants = [ 9 -> 2  11 -> 1  15 -> 7  ].
7 | network_0/router_level2_6 | Assigning output 9.0 to VC 0 at input 2.0.
7 | network_0/router_level2_6 | Completed VC allocation for VC 0 at input 3 (front: 9).
7 | network_0/router_level2_6 |   Acquiring assigned VC 1 at output 11.
7 | network_0/router_level2_6/buf_3/vc_0 | Changing state from vc_alloc to active.
7 | network_0/router_level2_6 | Completed VC allocation for VC 1 at input 1 (front: 2).
7 | network_0/router_level2_6 |   Acquiring assigned VC 0 at output 14.
7 | network_0/router_level2_6/buf_1/vc_1 | Changing state from vc_alloc to active.
7 | network_0/router_level2_6 | Completed switch allocation for VC 0 at input 2 (front: 8).
7 | network_0/router_level2_6 |   Scheduling switch connection from input 2.0 to output 9.0.
7 | network_0/router_level2_6 | Updating lookahead routing information for flit 8.
7 | network_0/network_0_fchan_20489 | Completed channel traversal for flit 3.
8 | network_0/router_level2_1 | Received flit 3 from channel at input 1.
8 | network_0/router_level2_0 | Beginning crossbar traversal for flit 5 from input 1.0 to output 12.0.
8 | network_0/router_level2_0 | Beginning crossbar traversal for flit 7 from input 2.0 to output 15.0.
8 | network_0/router_level2_0 | Completed crossbar traversal for flit 5 from input 1.0 to output 12.0.
8 | network_0/router_level2_0 | Buffering flit 5 at output 12.
8 | network_0/router_level2_0 | Completed crossbar traversal for flit 7 from input 2.0 to output 15.0.
8 | network_0/router_level2_0 | Buffering flit 7 at output 15.
8 | network_0/router_level2_1 | Adding flit 3 to VC 0 at input 1 (state: idle, empty).
8 | network_0/router_level2_1 | Using precomputed lookahead routing information for VC 0 at input 1 (front: 3).
8 | network_0/router_level2_1/buf_1/vc_0 | Changing state from idle to vc_alloc.
8 | network_0/router_level2_1 | Beginning VC allocation for VC 0 at input 1 (front: 3).
8 | network_0/router_level2_1 |   Requesting VC 0 at output 13 (in_pri: 0, out_pri: 0).
8 | network_0/router_level2_1 |   VC 1 at output 13 is in use by VC 0 at input 5 (front flit: 1392).
8 | network_0/router_level2_1 |   Requesting VC 2 at output 13 (in_pri: 0, out_pri: 0).
8 | network_0/router_level2_1 |   Requesting VC 3 at output 13 (in_pri: 0, out_pri: 0).
8 | network_0/router_level2_1/vc_allocator | Input requests = [ 4 -> [ 52@0 54@0 55@0 ]  5 -> [ 41@0 42@0 43@0 ]  12 -> [ 32@0 33@0 34@0 35@0 ]  25 -> [ 52@0 54@0 55@0 ]  28 -> [ 52@0 54@0 55@0 ]  ], output requests = [ 32 -> [ 12@0 ]  33 -> [ 12@0 ]  34 -> [ 12@0 ]  35 -> [ 12@0 ]  41 -> [ 5@0 ]  42 -> [ 5@0 ]  43 -> [ 5@0 ]  52 -> [ 4@0 25@0 28@0 ]  54 -> [ 4@0 25@0 28@0 ]  55 -> [ 4@0 25@0 28@0 ]  ].
8 | network_0/router_level2_1/vc_allocator | Input grants = [ 4 -> 54  5 -> 41  12 -> 32  25 -> 52  ], output grants = [ 32 -> 12  41 -> 5  52 -> 25  54 -> 4  ].
8 | network_0/router_level2_1 | Assigning VC 2 at output 13 to VC 0 at input 1.
8 | network_0/router_level2_1 | Beginning crossbar traversal for flit 1 from input 1.0 to output 13.0.
8 | network_0/router_level2_1 | Completed VC allocation for VC 0 at input 1 (front: 3).
8 | network_0/router_level2_1 |   Acquiring assigned VC 2 at output 13.
8 | network_0/router_level2_1/buf_1/vc_0 | Changing state from vc_alloc to active.
8 | network_0/router_level2_1 | Completed crossbar traversal for flit 1 from input 1.0 to output 13.0.
8 | network_0/router_level2_1 | Buffering flit 1 at output 13.
8 | network_0/router_level2_4 | Beginning crossbar traversal for flit 4 from input 1.0 to output 9.0.
8 | network_0/router_level2_4 | Beginning crossbar traversal for flit 6 from input 2.0 to output 14.0.
8 | network_0/router_level2_4 | Completed crossbar traversal for flit 4 from input 1.0 to output 9.0.
8 | network_0/router_level2_4 | Buffering flit 4 at output 9.
8 | network_0/router_level2_4 | Completed crossbar traversal for flit 6 from input 2.0 to output 14.0.
8 | network_0/router_level2_4 | Buffering flit 6 at output 14.
8 | network_0/router_level2_5 | Beginning crossbar traversal for flit 10 from input 3.0 to output 14.0.
8 | network_0/router_level2_5 | Completed crossbar traversal for flit 10 from input 3.0 to output 14.0.
8 | network_0/router_level2_5 | Buffering flit 10 at output 14.
8 | network_0/router_level2_6 | Beginning switch allocation for VC 0 at input 3 (front: 9).
8 | network_0/router_level2_6 |   Requesting output 11.0 (non-spec, pri: 0).
8 | network_0/router_level2_6 | Beginning switch allocation for VC 1 at input 1 (front: 2).
8 | network_0/router_level2_6 |   Requesting output 14.0 (non-spec, pri: 0).
8 | network_0/router_level2_6/sw_allocator | Input requests = [ 1 -> [ 14@0 ]  3 -> [ 11@0 ]  4 -> [ 8@0 ]  6 -> [ 13@0 ]  7 -> [ 15@0 ]  ], output requests = [ 8 -> [ 4@0 ]  11 -> [ 3@0 ]  13 -> [ 6@0 ]  14 -> [ 1@0 ]  15 -> [ 7@0 ]  ].
8 | network_0/router_level2_6/sw_allocator | Input grants = [ 1 -> 14  3 -> 11  4 -> 8  6 -> 13  7 -> 15  ], output grants = [ 8 -> 4  11 -> 3  13 -> 6  14 -> 1  15 -> 7  ].
8 | network_0/router_level2_6 | Assigning output 11.0 to VC 0 at input 3.0.
8 | network_0/router_level2_6 | Assigning output 14.0 to VC 1 at input 1.0.
8 | network_0/router_level2_6 | Beginning crossbar traversal for flit 8 from input 2.0 to output 9.0.
8 | network_0/router_level2_6 | Completed switch allocation for VC 0 at input 3 (front: 9).
8 | network_0/router_level2_6 |   Scheduling switch connection from input 3.0 to output 11.0.
8 | network_0/router_level2_6 | Updating lookahead routing information for flit 9.
8 | network_0/router_level2_6 | Completed switch allocation for VC 1 at input 1 (front: 2).
8 | network_0/router_level2_6 |   Scheduling switch connection from input 1.0 to output 14.0.
8 | network_0/router_level2_6 | Updating lookahead routing information for flit 2.
8 | network_0/router_level2_6 | Completed crossbar traversal for flit 8 from input 2.0 to output 9.0.
8 | network_0/router_level2_6 | Buffering flit 8 at output 9.
8 | network_0/router_level2_0 | Sending flit 5 to channel at output 12.
8 | network_0/router_level2_0 | Sending flit 7 to channel at output 15.
8 | network_0/router_level2_1 | Sending flit 1 to channel at output 13.
8 | network_0/router_level2_4 | Sending flit 4 to channel at output 9.
8 | network_0/router_level2_4 | Sending flit 6 to channel at output 14.
8 | network_0/router_level2_5 | Sending flit 10 to channel at output 14.
8 | network_0/router_level2_6 | Sending flit 8 to channel at output 9.
9 | network_0/network_0_fchan_12292 | Beginning channel traversal for flit 5 with delay 1.
9 | network_0/network_0_fchan_12295 | Beginning channel traversal for flit 7 with delay 1.
9 | network_0/network_0_fchan_12301 | Beginning channel traversal for flit 1 with delay 1.
9 | network_0/network_0_fchan_12321 | Beginning channel traversal for flit 4 with delay 1.
9 | network_0/network_0_fchan_12326 | Beginning channel traversal for flit 6 with delay 1.
9 | network_0/network_0_fchan_12334 | Beginning channel traversal for flit 10 with delay 1.
9 | network_0/network_0_fchan_12337 | Beginning channel traversal for flit 8 with delay 1.
9 | network_0/router_level2_1 | Beginning switch allocation for VC 0 at input 1 (front: 3).
9 | network_0/router_level2_1 |   Requesting output 13.0 (non-spec, pri: 0).
9 | network_0/router_level2_1/sw_allocator | Input requests = [ 1 -> [ 10@0 13@0 ]  3 -> [ 8@0 ]  6 -> [ 13@0 ]  ], output requests = [ 8 -> [ 3@0 ]  10 -> [ 1@0 ]  13 -> [ 1@0 6@0 ]  ].
9 | network_0/router_level2_1/sw_allocator | Input grants = [ 1 -> 10  3 -> 8  6 -> 13  ], output grants = [ 8 -> 3  10 -> 1  13 -> 6  ].
9 | network_0/router_level2_1 | Switch allocation failed for VC 0 at input 1: Granted to VC 1.
9 | network_0/router_level2_1 | Completed switch allocation for VC 0 at input 1 (front: 3).
9 | network_0/router_level2_1 |   No output port allocated.
9 | network_0/router_level2_6 | Beginning crossbar traversal for flit 9 from input 3.0 to output 11.0.
9 | network_0/router_level2_6 | Beginning crossbar traversal for flit 2 from input 1.0 to output 14.0.
9 | network_0/router_level2_6 | Completed crossbar traversal for flit 9 from input 3.0 to output 11.0.
9 | network_0/router_level2_6 | Buffering flit 9 at output 11.
9 | network_0/router_level2_6 | Completed crossbar traversal for flit 2 from input 1.0 to output 14.0.
9 | network_0/router_level2_6 | Buffering flit 2 at output 14.
9 | network_0/network_0_fchan_12292 | Completed channel traversal for flit 5.
9 | network_0/network_0_fchan_12295 | Completed channel traversal for flit 7.
9 | network_0/network_0_fchan_12301 | Completed channel traversal for flit 1.
9 | network_0/network_0_fchan_12321 | Completed channel traversal for flit 4.
9 | network_0/network_0_fchan_12326 | Completed channel traversal for flit 6.
9 | network_0/network_0_fchan_12334 | Completed channel traversal for flit 10.
9 | network_0/network_0_fchan_12337 | Completed channel traversal for flit 8.
9 | network_0/router_level2_6 | Sending flit 9 to channel at output 11.
9 | network_0/router_level2_6 | Sending flit 2 to channel at output 14.
10 | network_0/network_0_fchan_12339 | Beginning channel traversal for flit 9 with delay 1.
10 | network_0/network_0_fchan_12342 | Beginning channel traversal for flit 2 with delay 1.
10 | network_0/router_level1_12 | Received flit 4 from channel at input 0.
10 | network_0/router_level1_14 | Received flit 8 from channel at input 0.
10 | network_0/router_level1_32 | Received flit 5 from channel at input 0.
10 | network_0/router_level1_41 | Received flit 1 from channel at input 0.
10 | network_0/router_level1_52 | Received flit 6 from channel at input 0.
10 | network_0/router_level1_53 | Received flit 10 from channel at input 0.
10 | network_0/router_level1_56 | Received flit 7 from channel at input 0.
10 | network_0/router_level1_12 | Adding flit 4 to VC 0 at input 0 (state: idle, empty).
10 | network_0/router_level1_12 | Using precomputed lookahead routing information for VC 0 at input 0 (front: 4).
10 | network_0/router_level1_12/buf_0/vc_0 | Changing state from idle to vc_alloc.
10 | network_0/router_level1_12 | Beginning VC allocation for VC 0 at input 0 (front: 4).
10 | network_0/router_level1_12 |   Requesting VC 0 at output 8 (in_pri: 0, out_pri: 0).
10 | network_0/router_level1_12 |   Requesting VC 1 at output 8 (in_pri: 0, out_pri: 0).
10 | network_0/router_level1_12 |   Requesting VC 2 at output 8 (in_pri: 0, out_pri: 0).
10 | network_0/router_level1_12 |   Requesting VC 3 at output 8 (in_pri: 0, out_pri: 0).
10 | network_0/router_level1_12/vc_allocator | Input requests = [ 0 -> [ 32@0 33@0 34@0 35@0 ]  12 -> [ 36@0 37@0 38@0 39@0 ]  24 -> [ 36@0 37@0 38@0 39@0 ]  ], output requests = [ 32 -> [ 0@0 ]  33 -> [ 0@0 ]  34 -> [ 0@0 ]  35 -> [ 0@0 ]  36 -> [ 12@0 24@0 ]  37 -> [ 12@0 24@0 ]  38 -> [ 12@0 24@0 ]  39 -> [ 12@0 24@0 ]  ].
10 | network_0/router_level1_12/vc_allocator | Input grants = [ 0 -> 32  12 -> 36  ], output grants = [ 32 -> 0  36 -> 12  ].
10 | network_0/router_level1_12 | Assigning VC 0 at output 8 to VC 0 at input 0.
10 | network_0/router_level1_12 | Completed VC allocation for VC 0 at input 0 (front: 4).
10 | network_0/router_level1_12 |   Acquiring assigned VC 0 at output 8.
10 | network_0/router_level1_12/buf_0/vc_0 | Changing state from vc_alloc to active.
10 | network_0/router_level1_14 | Adding flit 8 to VC 0 at input 0 (state: idle, empty).
10 | network_0/router_level1_14 | Using precomputed lookahead routing information for VC 0 at input 0 (front: 8).
10 | network_0/router_level1_14/buf_0/vc_0 | Changing state from idle to vc_alloc.
10 | network_0/router_level1_14 | Beginning VC allocation for VC 0 at input 0 (front: 8).
10 | network_0/router_level1_14 |   Requesting VC 0 at output 9 (in_pri: 0, out_pri: 0).
10 | network_0/router_level1_14 |   Requesting VC 1 at output 9 (in_pri: 0, out_pri: 0).
10 | network_0/router_level1_14 |   Requesting VC 2 at output 9 (in_pri: 0, out_pri: 0).
10 | network_0/router_level1_14 |   Requesting VC 3 at output 9 (in_pri: 0, out_pri: 0).
10 | network_0/router_level1_14/vc_allocator | Input requests = [ 0 -> [ 36@0 37@0 38@0 39@0 ]  20 -> [ 32@0 33@0 34@0 35@0 ]  ], output requests = [ 32 -> [ 20@0 ]  33 -> [ 20@0 ]  34 -> [ 20@0 ]  35 -> [ 20@0 ]  36 -> [ 0@0 ]  37 -> [ 0@0 ]  38 -> [ 0@0 ]  39 -> [ 0@0 ]  ].
10 | network_0/router_level1_14/vc_allocator | Input grants = [ 0 -> 36  20 -> 32  ], output grants = [ 32 -> 20  36 -> 0  ].
10 | network_0/router_level1_14 | Assigning VC 0 at output 9 to VC 0 at input 0.
10 | network_0/router_level1_14 | Completed VC allocation for VC 0 at input 0 (front: 8).
10 | network_0/router_level1_14 |   Acquiring assigned VC 0 at output 9.
10 | network_0/router_level1_14/buf_0/vc_0 | Changing state from vc_alloc to active.
10 | network_0/router_level1_32 | Adding flit 5 to VC 0 at input 0 (state: idle, empty).
10 | network_0/router_level1_32 | Using precomputed lookahead routing information for VC 0 at input 0 (front: 5).
10 | network_0/router_level1_32/buf_0/vc_0 | Changing state from idle to vc_alloc.
10 | network_0/router_level1_32 | Beginning VC allocation for VC 0 at input 0 (front: 5).
10 | network_0/router_level1_32 |   Requesting VC 0 at output 9 (in_pri: 0, out_pri: 0).
10 | network_0/router_level1_32 |   Requesting VC 1 at output 9 (in_pri: 0, out_pri: 0).
10 | network_0/router_level1_32 |   Requesting VC 2 at output 9 (in_pri: 0, out_pri: 0).
10 | network_0/router_level1_32 |   Requesting VC 3 at output 9 (in_pri: 0, out_pri: 0).
10 | network_0/router_level1_32/vc_allocator | Input requests = [ 0 -> [ 36@0 37@0 38@0 39@0 ]  8 -> [ 12@0 13@0 14@0 15@0 ]  20 -> [ 32@0 33@0 34@0 35@0 ]  ], output requests = [ 12 -> [ 8@0 ]  13 -> [ 8@0 ]  14 -> [ 8@0 ]  15 -> [ 8@0 ]  32 -> [ 20@0 ]  33 -> [ 20@0 ]  34 -> [ 20@0 ]  35 -> [ 20@0 ]  36 -> [ 0@0 ]  37 -> [ 0@0 ]  38 -> [ 0@0 ]  39 -> [ 0@0 ]  ].
10 | network_0/router_level1_32/vc_allocator | Input grants = [ 0 -> 36  8 -> 12  20 -> 32  ], output grants = [ 12 -> 8  32 -> 20  36 -> 0  ].
10 | network_0/router_level1_32 | Assigning VC 0 at output 9 to VC 0 at input 0.
10 | network_0/router_level1_32 | Completed VC allocation for VC 0 at input 0 (front: 5).
10 | network_0/router_level1_32 |   Acquiring assigned VC 0 at output 9.
10 | network_0/router_level1_32/buf_0/vc_0 | Changing state from vc_alloc to active.
10 | network_0/router_level1_41 | Adding flit 1 to VC 0 at input 0 (state: idle, empty).
10 | network_0/router_level1_41 | Using precomputed lookahead routing information for VC 0 at input 0 (front: 1).
10 | network_0/router_level1_41/buf_0/vc_0 | Changing state from idle to vc_alloc.
10 | network_0/router_level1_41 | Beginning VC allocation for VC 0 at input 0 (front: 1).
10 | network_0/router_level1_41 |   Requesting VC 0 at output 9 (in_pri: 0, out_pri: 0).
10 | network_0/router_level1_41 |   Requesting VC 1 at output 9 (in_pri: 0, out_pri: 0).
10 | network_0/router_level1_41 |   Requesting VC 2 at output 9 (in_pri: 0, out_pri: 0).
10 | network_0/router_level1_41 |   Requesting VC 3 at output 9 (in_pri: 0, out_pri: 0).
10 | network_0/router_level1_41/vc_allocator | Input requests = [ 0 -> [ 36@0 37@0 38@0 39@0 ]  4 -> [ 36@0 37@0 38@0 39@0 ]  12 -> [ 32@0 33@0 34@0 35@0 ]  ], output requests = [ 32 -> [ 12@0 ]  33 -> [ 12@0 ]  34 -> [ 12@0 ]  35 -> [ 12@0 ]  36 -> [ 0@0 4@0 ]  37 -> [ 0@0 4@0 ]  38 -> [ 0@0 4@0 ]  39 -> [ 0@0 4@0 ]  ].
10 | network_0/router_level1_41/vc_allocator | Input grants = [ 0 -> 36  12 -> 32  ], output grants = [ 32 -> 12  36 -> 0  ].
10 | network_0/router_level1_41 | Assigning VC 0 at output 9 to VC 0 at input 0.
10 | network_0/router_level1_41 | Completed VC allocation for VC 0 at input 0 (front: 1).
10 | network_0/router_level1_41 |   Acquiring assigned VC 0 at output 9.
10 | network_0/router_level1_41/buf_0/vc_0 | Changing state from vc_alloc to active.
10 | network_0/router_level1_52 | Adding flit 6 to VC 0 at input 0 (state: idle, empty).
10 | network_0/router_level1_52 | Using precomputed lookahead routing information for VC 0 at input 0 (front: 6).
10 | network_0/router_level1_52/buf_0/vc_0 | Changing state from idle to vc_alloc.
10 | network_0/router_level1_52 | Beginning VC allocation for VC 0 at input 0 (front: 6).
10 | network_0/router_level1_52 |   Requesting VC 0 at output 9 (in_pri: 0, out_pri: 0).
10 | network_0/router_level1_52 |   Requesting VC 1 at output 9 (in_pri: 0, out_pri: 0).
10 | network_0/router_level1_52 |   Requesting VC 2 at output 9 (in_pri: 0, out_pri: 0).
10 | network_0/router_level1_52 |   Requesting VC 3 at output 9 (in_pri: 0, out_pri: 0).
10 | network_0/router_level1_52/vc_allocator | Input requests = [ 0 -> [ 36@0 37@0 38@0 39@0 ]  24 -> [ 36@0 37@0 38@0 39@0 ]  28 -> [ 16@0 17@0 18@0 19@0 ]  ], output requests = [ 16 -> [ 28@0 ]  17 -> [ 28@0 ]  18 -> [ 28@0 ]  19 -> [ 28@0 ]  36 -> [ 0@0 24@0 ]  37 -> [ 0@0 24@0 ]  38 -> [ 0@0 24@0 ]  39 -> [ 0@0 24@0 ]  ].
10 | network_0/router_level1_52/vc_allocator | Input grants = [ 0 -> 36  28 -> 16  ], output grants = [ 16 -> 28  36 -> 0  ].
10 | network_0/router_level1_52 | Assigning VC 0 at output 9 to VC 0 at input 0.
10 | network_0/router_level1_52 | Completed VC allocation for VC 0 at input 0 (front: 6).
10 | network_0/router_level1_52 |   Acquiring assigned VC 0 at output 9.
10 | network_0/router_level1_52/buf_0/vc_0 | Changing state from vc_alloc to active.
10 | network_0/router_level1_53 | Adding flit 10 to VC 0 at input 0 (state: idle, empty).
10 | network_0/router_level1_53 | Using precomputed lookahead routing information for VC 0 at input 0 (front: 10).
10 | network_0/router_level1_53/buf_0/vc_0 | Changing state from idle to vc_alloc.
10 | network_0/router_level1_53 | Beginning VC allocation for VC 0 at input 0 (front: 10).
10 | network_0/router_level1_53 |   Requesting VC 0 at output 9 (in_pri: 0, out_pri: 0).
10 | network_0/router_level1_53 |   Requesting VC 1 at output 9 (in_pri: 0, out_pri: 0).
10 | network_0/router_level1_53 |   Requesting VC 2 at output 9 (in_pri: 0, out_pri: 0).
10 | network_0/router_level1_53 |   Requesting VC 3 at output 9 (in_pri: 0, out_pri: 0).
10 | network_0/router_level1_53/vc_allocator | Input requests = [ 0 -> [ 36@0 37@0 38@0 39@0 ]  12 -> [ 36@0 37@0 38@0 39@0 ]  28 -> [ 36@0 37@0 38@0 39@0 ]  ], output requests = [ 36 -> [ 0@0 12@0 28@0 ]  37 -> [ 0@0 12@0 28@0 ]  38 -> [ 0@0 12@0 28@0 ]  39 -> [ 0@0 12@0 28@0 ]  ].
10 | network_0/router_level1_53/vc_allocator | Input grants = [ 0 -> 36  ], output grants = [ 36 -> 0  ].
10 | network_0/router_level1_53 | Assigning VC 0 at output 9 to VC 0 at input 0.
10 | network_0/router_level1_53 | Completed VC allocation for VC 0 at input 0 (front: 10).
10 | network_0/router_level1_53 |   Acquiring assigned VC 0 at output 9.
10 | network_0/router_level1_53/buf_0/vc_0 | Changing state from vc_alloc to active.
10 | network_0/router_level1_56 | Adding flit 7 to VC 0 at input 0 (state: idle, empty).
10 | network_0/router_level1_56 | Using precomputed lookahead routing information for VC 0 at input 0 (front: 7).
10 | network_0/router_level1_56/buf_0/vc_0 | Changing state from idle to vc_alloc.
10 | network_0/router_level1_56 | Beginning VC allocation for VC 0 at input 0 (front: 7).
10 | network_0/router_level1_56 |   Requesting VC 0 at output 9 (in_pri: 0, out_pri: 0).
10 | network_0/router_level1_56 |   Requesting VC 1 at output 9 (in_pri: 0, out_pri: 0).
10 | network_0/router_level1_56 |   Requesting VC 2 at output 9 (in_pri: 0, out_pri: 0).
10 | network_0/router_level1_56 |   Requesting VC 3 at output 9 (in_pri: 0, out_pri: 0).
10 | network_0/router_level1_56/vc_allocator | Input requests = [ 0 -> [ 36@0 37@0 38@0 39@0 ]  4 -> [ 36@0 37@0 38@0 39@0 ]  28 -> [ 32@0 33@0 34@0 35@0 ]  ], output requests = [ 32 -> [ 28@0 ]  33 -> [ 28@0 ]  34 -> [ 28@0 ]  35 -> [ 28@0 ]  36 -> [ 0@0 4@0 ]  37 -> [ 0@0 4@0 ]  38 -> [ 0@0 4@0 ]  39 -> [ 0@0 4@0 ]  ].
10 | network_0/router_level1_56/vc_allocator | Input grants = [ 0 -> 36  28 -> 32  ], output grants = [ 32 -> 28  36 -> 0  ].
10 | network_0/router_level1_56 | Assigning VC 0 at output 9 to VC 0 at input 0.
10 | network_0/router_level1_56 | Completed VC allocation for VC 0 at input 0 (front: 7).
10 | network_0/router_level1_56 |   Acquiring assigned VC 0 at output 9.
10 | network_0/router_level1_56/buf_0/vc_0 | Changing state from vc_alloc to active.
10 | network_0/router_level2_1 | Beginning switch allocation for VC 0 at input 1 (front: 3).
10 | network_0/router_level2_1 |   Requesting output 13.0 (non-spec, pri: 0).
10 | network_0/router_level2_1/sw_allocator | Input requests = [ 0 -> [ 10@0 ]  1 -> [ 13@0 ]  5 -> [ 12@0 ]  6 -> [ 15@0 ]  7 -> [ 13@0 ]  ], output requests = [ 10 -> [ 0@0 ]  12 -> [ 5@0 ]  13 -> [ 1@0 7@0 ]  15 -> [ 6@0 ]  ].
10 | network_0/router_level2_1/sw_allocator | Input grants = [ 0 -> 10  5 -> 12  6 -> 15  7 -> 13  ], output grants = [ 10 -> 0  12 -> 5  13 -> 7  15 -> 6  ].
10 | network_0/router_level2_1 | Switch allocation failed for VC 0 at input 1: No output granted.
10 | network_0/router_level2_1 | Completed switch allocation for VC 0 at input 1 (front: 3).
10 | network_0/router_level2_1 |   No output port allocated.
10 | network_0/network_0_fchan_12339 | Completed channel traversal for flit 9.
10 | network_0/network_0_fchan_12342 | Completed channel traversal for flit 2.
11 | network_0/router_level1_30 | Received flit 9 from channel at input 0.
11 | network_0/router_level1_54 | Received flit 2 from channel at input 0.
11 | network_0/router_level1_12 | Beginning switch allocation for VC 0 at input 0 (front: 4).
11 | network_0/router_level1_12 |   Requesting output 8.0 (non-spec, pri: 0).
11 | network_0/router_level1_12/sw_allocator | Input requests = [ 0 -> [ 8@0 ]  3 -> [ 9@0 ]  ], output requests = [ 8 -> [ 0@0 ]  9 -> [ 3@0 ]  ].
11 | network_0/router_level1_12/sw_allocator | Input grants = [ 0 -> 8  3 -> 9  ], output grants = [ 8 -> 0  9 -> 3  ].
11 | network_0/router_level1_12 | Assigning output 8.0 to VC 0 at input 0.0.
11 | network_0/router_level1_12 | Completed switch allocation for VC 0 at input 0 (front: 4).
11 | network_0/router_level1_12 |   Scheduling switch connection from input 0.0 to output 8.0.
11 | network_0/router_level1_12 | Updating lookahead routing information for flit 4.
11 | network_0/router_level1_14 | Beginning switch allocation for VC 0 at input 0 (front: 8).
11 | network_0/router_level1_14 |   Requesting output 9.0 (non-spec, pri: 0).
11 | network_0/router_level1_14/sw_allocator | Input requests = [ 0 -> [ 9@0 ]  5 -> [ 8@0 ]  ], output requests = [ 8 -> [ 5@0 ]  9 -> [ 0@0 ]  ].
11 | network_0/router_level1_14/sw_allocator | Input grants = [ 0 -> 9  5 -> 8  ], output grants = [ 8 -> 5  9 -> 0  ].
11 | network_0/router_level1_14 | Assigning output 9.0 to VC 0 at input 0.0.
11 | network_0/router_level1_14 | Completed switch allocation for VC 0 at input 0 (front: 8).
11 | network_0/router_level1_14 |   Scheduling switch connection from input 0.0 to output 9.0.
11 | network_0/router_level1_14 | Updating lookahead routing information for flit 8.
11 | network_0/router_level1_30 | Adding flit 9 to VC 1 at input 0 (state: idle, empty).
11 | network_0/router_level1_30 | Using precomputed lookahead routing information for VC 1 at input 0 (front: 9).
11 | network_0/router_level1_30/buf_0/vc_1 | Changing state from idle to vc_alloc.
11 | network_0/router_level1_30 | Beginning VC allocation for VC 1 at input 0 (front: 9).
11 | network_0/router_level1_30 |   Requesting VC 0 at output 7 (in_pri: 0, out_pri: 0).
11 | network_0/router_level1_30 |   Requesting VC 1 at output 7 (in_pri: 0, out_pri: 0).
11 | network_0/router_level1_30 |   Requesting VC 2 at output 7 (in_pri: 0, out_pri: 0).
11 | network_0/router_level1_30 |   Requesting VC 3 at output 7 (in_pri: 0, out_pri: 0).
11 | network_0/router_level1_30/vc_allocator | Input requests = [ 1 -> [ 28@0 29@0 30@0 31@0 ]  28 -> [ 33@0 34@0 35@0 ]  ], output requests = [ 28 -> [ 1@0 ]  29 -> [ 1@0 ]  30 -> [ 1@0 ]  31 -> [ 1@0 ]  33 -> [ 28@0 ]  34 -> [ 28@0 ]  35 -> [ 28@0 ]  ].
11 | network_0/router_level1_30/vc_allocator | Input grants = [ 1 -> 28  28 -> 33  ], output grants = [ 28 -> 1  33 -> 28  ].
11 | network_0/router_level1_30 | Assigning VC 0 at output 7 to VC 1 at input 0.
11 | network_0/router_level1_30 | Completed VC allocation for VC 1 at input 0 (front: 9).
11 | network_0/router_level1_30 |   Acquiring assigned VC 0 at output 7.
11 | network_0/router_level1_30/buf_0/vc_1 | Changing state from vc_alloc to active.
11 | network_0/router_level1_32 | Beginning switch allocation for VC 0 at input 0 (front: 5).
11 | network_0/router_level1_32 |   Requesting output 9.0 (non-spec, pri: 0).
11 | network_0/router_level1_32/sw_allocator | Input requests = [ 0 -> [ 9@0 ]  2 -> [ 3@0 ]  5 -> [ 8@0 ]  ], output requests = [ 3 -> [ 2@0 ]  8 -> [ 5@0 ]  9 -> [ 0@0 ]  ].
11 | network_0/router_level1_32/sw_allocator | Input grants = [ 0 -> 9  2 -> 3  5 -> 8  ], output grants = [ 3 -> 2  8 -> 5  9 -> 0  ].
11 | network_0/router_level1_32 | Assigning output 9.0 to VC 0 at input 0.0.
11 | network_0/router_level1_32 | Completed switch allocation for VC 0 at input 0 (front: 5).
11 | network_0/router_level1_32 |   Scheduling switch connection from input 0.0 to output 9.0.
11 | network_0/router_level1_32 | Updating lookahead routing information for flit 5.
11 | network_0/router_level1_41 | Beginning switch allocation for VC 0 at input 0 (front: 1).
11 | network_0/router_level1_41 |   Requesting output 9.0 (non-spec, pri: 0).
11 | network_0/router_level1_41/sw_allocator | Input requests = [ 0 -> [ 9@0 ]  3 -> [ 8@0 ]  ], output requests = [ 8 -> [ 3@0 ]  9 -> [ 0@0 ]  ].
11 | network_0/router_level1_41/sw_allocator | Input grants = [ 0 -> 9  3 -> 8  ], output grants = [ 8 -> 3  9 -> 0  ].
11 | network_0/router_level1_41 | Assigning output 9.0 to VC 0 at input 0.0.
11 | network_0/router_level1_41 | Completed switch allocation for VC 0 at input 0 (front: 1).
11 | network_0/router_level1_41 |   Scheduling switch connection from input 0.0 to output 9.0.
11 | network_0/router_level1_41 | Updating lookahead routing information for flit 1.
11 | network_0/router_level1_52 | Beginning switch allocation for VC 0 at input 0 (front: 6).
11 | network_0/router_level1_52 |   Requesting output 9.0 (non-spec, pri: 0).
11 | network_0/router_level1_52/sw_allocator | Input requests = [ 0 -> [ 9@0 ]  7 -> [ 4@0 ]  ], output requests = [ 4 -> [ 7@0 ]  9 -> [ 0@0 ]  ].
11 | network_0/router_level1_52/sw_allocator | Input grants = [ 0 -> 9  7 -> 4  ], output grants = [ 4 -> 7  9 -> 0  ].
11 | network_0/router_level1_52 | Assigning output 9.0 to VC 0 at input 0.0.
11 | network_0/router_level1_52 | Completed switch allocation for VC 0 at input 0 (front: 6).
11 | network_0/router_level1_52 |   Scheduling switch connection from input 0.0 to output 9.0.
11 | network_0/router_level1_52 | Updating lookahead routing information for flit 6.
11 | network_0/router_level1_53 | Beginning switch allocation for VC 0 at input 0 (front: 10).
11 | network_0/router_level1_53 |   Requesting output 9.0 (non-spec, pri: 0).
[...]
28 | network_0/router_level3_224/sw_allocator | Input grants = [ 2 -> 10  8 -> 2  9 -> 0  14 -> 3  ], output grants = [ 0 -> 9  2 -> 8  3 -> 14  10 -> 2  ].
28 | network_0/router_level3_224 | Assigning output 3.0 to VC 1 at input 14.0.
28 | network_0/router_level3_224 | Completed switch allocation for VC 1 at input 14 (front: 8).
28 | network_0/router_level3_224 |   Scheduling switch connection from input 14.0 to output 3.0.
28 | network_0/router_level3_226 | Beginning crossbar traversal for flit 7 from input 8.0 to output 2.0.
28 | network_0/router_level3_226 | Completed crossbar traversal for flit 7 from input 8.0 to output 2.0.
28 | network_0/router_level3_226 | Buffering flit 7 at output 2.
28 | network_0/router_level3_247 | Beginning crossbar traversal for flit 1 from input 9.0 to output 2.0.
28 | network_0/router_level3_247 | Completed crossbar traversal for flit 1 from input 9.0 to output 2.0.
28 | network_0/router_level3_247 | Buffering flit 1 at output 2.
28 | network_0/router_level3_305 | Beginning crossbar traversal for flit 4 from input 12.0 to output 0.0.
28 | network_0/router_level3_305 | Completed crossbar traversal for flit 4 from input 12.0 to output 0.0.
28 | network_0/router_level3_305 | Buffering flit 4 at output 0.
28 | network_0/router_level3_485 | Beginning crossbar traversal for flit 5 from input 8.0 to output 6.0.
28 | network_0/router_level3_485 | Completed crossbar traversal for flit 5 from input 8.0 to output 6.0.
28 | network_0/router_level3_485 | Buffering flit 5 at output 6.
28 | network_0/router_level3_129 | Sending flit 10 to channel at output 6.
28 | network_0/router_level3_171 | Sending flit 6 to channel at output 2.
28 | network_0/router_level3_226 | Sending flit 7 to channel at output 2.
28 | network_0/router_level3_247 | Sending flit 1 to channel at output 2.
28 | network_0/router_level3_305 | Sending flit 4 to channel at output 0.
28 | network_0/router_level3_485 | Sending flit 5 to channel at output 6.
29 | network_0/network_0_fchan_egress1038 | Beginning channel traversal for flit 10 with delay 1.
29 | network_0/network_0_fchan_egress1370 | Beginning channel traversal for flit 6 with delay 1.
29 | network_0/network_0_fchan_egress1810 | Beginning channel traversal for flit 7 with delay 1.
29 | network_0/network_0_fchan_egress1978 | Beginning channel traversal for flit 1 with delay 1.
29 | network_0/network_0_fchan_egress2440 | Beginning channel traversal for flit 4 with delay 1.
29 | network_0/network_0_fchan_egress3886 | Beginning channel traversal for flit 5 with delay 1.
29 | network_0/router_level1_169 | Beginning VC allocation for VC 0 at input 8 (front: 3).
29 | network_0/router_level1_169 |   Requesting VC 0 at output 2 (in_pri: 0, out_pri: 0).
29 | network_0/router_level1_169 |   Requesting VC 1 at output 2 (in_pri: 0, out_pri: 0).
29 | network_0/router_level1_169 |   Requesting VC 2 at output 2 (in_pri: 0, out_pri: 0).
29 | network_0/router_level1_169 |   Requesting VC 3 at output 2 (in_pri: 0, out_pri: 0).
29 | network_0/router_level1_169/vc_allocator | Input requests = [ 16 -> [ 39@0 ]  32 -> [ 8@0 9@0 10@0 11@0 ]  37 -> [ 12@0 13@0 14@0 15@0 ]  ], output requests = [ 8 -> [ 32@0 ]  9 -> [ 32@0 ]  10 -> [ 32@0 ]  11 -> [ 32@0 ]  12 -> [ 37@0 ]  13 -> [ 37@0 ]  14 -> [ 37@0 ]  15 -> [ 37@0 ]  39 -> [ 16@0 ]  ].
29 | network_0/router_level1_169/vc_allocator | Input grants = [ 16 -> 39  32 -> 9  37 -> 12  ], output grants = [ 9 -> 32  12 -> 37  39 -> 16  ].
29 | network_0/router_level1_169 | Assigning VC 1 at output 2 to VC 0 at input 8.
29 | network_0/router_level1_169 | Completed VC allocation for VC 0 at input 8 (front: 3).
29 | network_0/router_level1_169 |   Acquiring assigned VC 1 at output 2.
29 | network_0/router_level1_169/buf_8/vc_0 | Changing state from vc_alloc to active.
29 | network_0/router_level3_222 | Beginning switch allocation for VC 0 at input 14 (front: 2).
29 | network_0/router_level3_222 |   Requesting output 3.0 (non-spec, pri: 0).
29 | network_0/router_level3_222/sw_allocator | Input requests = [ 3 -> [ 13@0 ]  4 -> [ 15@0 ]  5 -> [ 11@0 ]  7 -> [ 10@0 ]  8 -> [ 1@0 ]  13 -> [ 5@0 ]  14 -> [ 3@0 ]  ], output requests = [ 1 -> [ 8@0 ]  3 -> [ 14@0 ]  5 -> [ 13@0 ]  10 -> [ 7@0 ]  11 -> [ 5@0 ]  13 -> [ 3@0 ]  15 -> [ 4@0 ]  ].
29 | network_0/router_level3_222/sw_allocator | Input grants = [ 3 -> 13  4 -> 15  5 -> 11  7 -> 10  8 -> 1  13 -> 5  14 -> 3  ], output grants = [ 1 -> 8  3 -> 14  5 -> 13  10 -> 7  11 -> 5  13 -> 3  15 -> 4  ].
29 | network_0/router_level3_222 | Assigning output 3.0 to VC 0 at input 14.0.
29 | network_0/router_level3_222 | Completed switch allocation for VC 0 at input 14 (front: 2).
29 | network_0/router_level3_222 |   Scheduling switch connection from input 14.0 to output 3.0.
29 | network_0/router_level3_224 | Beginning crossbar traversal for flit 8 from input 14.0 to output 3.0.
29 | network_0/router_level3_224 | Completed crossbar traversal for flit 8 from input 14.0 to output 3.0.
29 | network_0/router_level3_224 | Buffering flit 8 at output 3.
29 | network_0/network_0_fchan_egress1038 | Completed channel traversal for flit 10.
29 | network_0/network_0_fchan_egress1370 | Completed channel traversal for flit 6.
29 | network_0/network_0_fchan_egress1810 | Completed channel traversal for flit 7.
29 | network_0/network_0_fchan_egress1978 | Completed channel traversal for flit 1.
29 | network_0/network_0_fchan_egress2440 | Completed channel traversal for flit 4.
29 | network_0/network_0_fchan_egress3886 | Completed channel traversal for flit 5.
29 | network_0/router_level3_224 | Sending flit 8 to channel at output 3.
30 | node1038 | Ejecting flit 10 (packet 10) from VC 0.
30 | node1370 | Ejecting flit 6 (packet 6) from VC 0.
30 | node1810 | Ejecting flit 7 (packet 7) from VC 0.
30 | node1978 | Ejecting flit 1 (packet 1) from VC 0.
30 | node2440 | Ejecting flit 4 (packet 4) from VC 0.
30 | node3886 | Ejecting flit 5 (packet 5) from VC 0.
30 | network_0/network_0_fchan_egress1795 | Beginning channel traversal for flit 8 with delay 1.
30 | node1038 | Injecting credit for VC 0 into subnet 0.
30 | node1038 | Retiring flit 10 (packet 10, src = 31, dest = 1038, hops = 7, flat = 30).
30 | node1038 | Retiring packet 10 (plat = 30, nlat = 30, frag = 0, src = 31, dest = 1038).
30 | node1370 | Injecting credit for VC 0 into subnet 0.
30 | node1370 | Retiring flit 6 (packet 6, src = 18, dest = 1370, hops = 7, flat = 30).
30 | node1370 | Retiring packet 6 (plat = 30, nlat = 30, frag = 0, src = 18, dest = 1370).
30 | node1810 | Injecting credit for VC 0 into subnet 0.
30 | node1810 | Retiring flit 7 (packet 7, src = 19, dest = 1810, hops = 7, flat = 30).
30 | node1810 | Retiring packet 7 (plat = 30, nlat = 30, frag = 0, src = 19, dest = 1810).
30 | node1978 | Injecting credit for VC 0 into subnet 0.
30 | node1978 | Retiring flit 1 (packet 1, src = 11, dest = 1978, hops = 7, flat = 30).
30 | node1978 | Retiring packet 1 (plat = 30, nlat = 30, frag = 0, src = 11, dest = 1978).
30 | node2440 | Injecting credit for VC 0 into subnet 0.
30 | node2440 | Retiring flit 4 (packet 4, src = 14, dest = 2440, hops = 7, flat = 30).
30 | node2440 | Retiring packet 4 (plat = 30, nlat = 30, frag = 0, src = 14, dest = 2440).
30 | node3886 | Injecting credit for VC 0 into subnet 0.
30 | node3886 | Retiring flit 5 (packet 5, src = 15, dest = 3886, hops = 7, flat = 30).
30 | node3886 | Retiring packet 5 (plat = 30, nlat = 30, frag = 0, src = 15, dest = 3886).
30 | network_0/router_level1_169 | Beginning switch allocation for VC 0 at input 8 (front: 3).
30 | network_0/router_level1_169 |   Requesting output 2.0 (non-spec, pri: 0).
30 | network_0/router_level1_169/sw_allocator | Input requests = [ 0 -> [ 8@0 ]  2 -> [ 9@0 ]  3 -> [ 8@0 9@0 ]  4 -> [ 9@0 ]  8 -> [ 2@0 ]  9 -> [ 3@0 ]  ], output requests = [ 2 -> [ 8@0 ]  3 -> [ 9@0 ]  8 -> [ 0@0 3@0 ]  9 -> [ 2@0 3@0 4@0 ]  ].
30 | network_0/router_level1_169/sw_allocator | Input grants = [ 0 -> 8  3 -> 9  8 -> 2  9 -> 3  ], output grants = [ 2 -> 8  3 -> 9  8 -> 0  9 -> 3  ].
30 | network_0/router_level1_169 | Assigning output 2.0 to VC 0 at input 8.0.
30 | network_0/router_level1_169 | Completed switch allocation for VC 0 at input 8 (front: 3).
30 | network_0/router_level1_169 |   Scheduling switch connection from input 8.0 to output 2.0.
30 | network_0/router_level1_169 | Updating lookahead routing information for flit 3.
30 | network_0/router_level3_222 | Beginning crossbar traversal for flit 2 from input 14.0 to output 3.0.
30 | network_0/router_level3_222 | Completed crossbar traversal for flit 2 from input 14.0 to output 3.0.
30 | network_0/router_level3_222 | Buffering flit 2 at output 3.
30 | network_0/network_0_fchan_egress1795 | Completed channel traversal for flit 8.
30 | network_0/router_level3_222 | Sending flit 2 to channel at output 3.
31 | node1795 | Ejecting flit 8 (packet 8) from VC 0.
31 | network_0/network_0_fchan_egress1779 | Beginning channel traversal for flit 2 with delay 1.
31 | node1795 | Injecting credit for VC 0 into subnet 0.
31 | node1795 | Retiring flit 8 (packet 8, src = 20, dest = 1795, hops = 7, flat = 31).
31 | node1795 | Retiring packet 8 (plat = 31, nlat = 31, frag = 0, src = 20, dest = 1795).
31 | network_0/router_level1_169 | Beginning crossbar traversal for flit 3 from input 8.0 to output 2.0.
31 | network_0/router_level1_169 | Completed crossbar traversal for flit 3 from input 8.0 to output 2.0.
31 | network_0/router_level1_169 | Buffering flit 3 at output 2.
31 | network_0/network_0_fchan_egress1779 | Completed channel traversal for flit 2.
31 | network_0/router_level1_169 | Sending flit 3 to channel at output 2.
32 | node1779 | Ejecting flit 2 (packet 2) from VC 1.
32 | network_0/network_0_fchan_9546 | Beginning channel traversal for flit 3 with delay 1.
32 | node1779 | Injecting credit for VC 1 into subnet 0.
32 | node1779 | Retiring flit 2 (packet 2, src = 12, dest = 1779, hops = 7, flat = 32).
32 | node1779 | Retiring packet 2 (plat = 32, nlat = 32, frag = 0, src = 12, dest = 1779).
32 | network_0/network_0_fchan_9546 | Completed channel traversal for flit 3.
33 | network_0/router_level2_145 | Received flit 3 from channel at input 13.
33 | network_0/router_level2_145 | Adding flit 3 to VC 1 at input 13 (state: idle, empty).
33 | network_0/router_level2_145 | Using precomputed lookahead routing information for VC 1 at input 13 (front: 3).
33 | network_0/router_level2_145/buf_13/vc_1 | Changing state from idle to vc_alloc.
33 | network_0/router_level2_145 | Beginning VC allocation for VC 1 at input 13 (front: 3).
33 | network_0/router_level2_145 |   Requesting VC 0 at output 7 (in_pri: 0, out_pri: 0).
33 | network_0/router_level2_145 |   Requesting VC 1 at output 7 (in_pri: 0, out_pri: 0).
33 | network_0/router_level2_145 |   Requesting VC 2 at output 7 (in_pri: 0, out_pri: 0).
33 | network_0/router_level2_145 |   Requesting VC 3 at output 7 (in_pri: 0, out_pri: 0).
33 | network_0/router_level2_145/vc_allocator | Input requests = [ 4 -> [ 36@0 37@0 38@0 39@0 ]  28 -> [ 33@0 34@0 35@0 ]  48 -> [ 28@0 29@0 30@0 31@0 ]  53 -> [ 28@0 29@0 30@0 31@0 ]  ], output requests = [ 28 -> [ 48@0 53@0 ]  29 -> [ 48@0 53@0 ]  30 -> [ 48@0 53@0 ]  31 -> [ 48@0 53@0 ]  33 -> [ 28@0 ]  34 -> [ 28@0 ]  35 -> [ 28@0 ]  36 -> [ 4@0 ]  37 -> [ 4@0 ]  38 -> [ 4@0 ]  39 -> [ 4@0 ]  ].
33 | network_0/router_level2_145/vc_allocator | Input grants = [ 4 -> 36  28 -> 33  48 -> 28  53 -> 30  ], output grants = [ 28 -> 48  30 -> 53  33 -> 28  36 -> 4  ].
33 | network_0/router_level2_145 | Assigning VC 2 at output 7 to VC 1 at input 13.
33 | network_0/router_level2_145 | Completed VC allocation for VC 1 at input 13 (front: 3).
33 | network_0/router_level2_145 |   Acquiring assigned VC 2 at output 7.
33 | network_0/router_level2_145/buf_13/vc_1 | Changing state from vc_alloc to active.
34 | network_0/router_level2_145 | Beginning switch allocation for VC 1 at input 13 (front: 3).
34 | network_0/router_level2_145 |   Requesting output 7.0 (non-spec, pri: 0).
34 | network_0/router_level2_145/sw_allocator | Input requests = [ 1 -> [ 9@0 ]  5 -> [ 8@0 ]  7 -> [ 8@0 ]  12 -> [ 7@0 ]  13 -> [ 7@0 ]  ], output requests = [ 7 -> [ 12@0 13@0 ]  8 -> [ 5@0 7@0 ]  9 -> [ 1@0 ]  ].
34 | network_0/router_level2_145/sw_allocator | Input grants = [ 1 -> 9  7 -> 8  12 -> 7  ], output grants = [ 7 -> 12  8 -> 7  9 -> 1  ].
34 | network_0/router_level2_145 | Switch allocation failed for VC 1 at input 13: No output granted.
34 | network_0/router_level2_145 | Completed switch allocation for VC 1 at input 13 (front: 3).
34 | network_0/router_level2_145 |   No output port allocated.
35 | network_0/router_level2_145 | Beginning switch allocation for VC 1 at input 13 (front: 3).
35 | network_0/router_level2_145 |   Requesting output 7.0 (non-spec, pri: 0).
35 | network_0/router_level2_145/sw_allocator | Input requests = [ 0 -> [ 10@0 ]  2 -> [ 8@0 ]  4 -> [ 9@0 ]  5 -> [ 8@0 ]  6 -> [ 9@0 ]  7 -> [ 13@0 ]  10 -> [ 2@0 ]  13 -> [ 7@0 ]  ], output requests = [ 2 -> [ 10@0 ]  7 -> [ 13@0 ]  8 -> [ 2@0 5@0 ]  9 -> [ 4@0 6@0 ]  10 -> [ 0@0 ]  13 -> [ 7@0 ]  ].
35 | network_0/router_level2_145/sw_allocator | Input grants = [ 0 -> 10  2 -> 8  4 -> 9  7 -> 13  10 -> 2  13 -> 7  ], output grants = [ 2 -> 10  7 -> 13  8 -> 2  9 -> 4  10 -> 0  13 -> 7  ].
35 | network_0/router_level2_145 | Assigning output 7.0 to VC 1 at input 13.0.
35 | network_0/router_level2_145 | Completed switch allocation for VC 1 at input 13 (front: 3).
35 | network_0/router_level2_145 |   Scheduling switch connection from input 13.0 to output 7.0.
35 | network_0/router_level2_145 | Updating lookahead routing information for flit 3.
36 | network_0/router_level2_145 | Beginning crossbar traversal for flit 3 from input 13.0 to output 7.0.
36 | network_0/router_level2_145 | Completed crossbar traversal for flit 3 from input 13.0 to output 7.0.
36 | network_0/router_level2_145 | Buffering flit 3 at output 7.
36 | network_0/router_level2_145 | Sending flit 3 to channel at output 7.
37 | network_0/network_0_fchan_17551 | Beginning channel traversal for flit 3 with delay 1.
37 | network_0/network_0_fchan_17551 | Completed channel traversal for flit 3.
38 | network_0/router_level3_151 | Received flit 3 from channel at input 9.
38 | network_0/router_level3_151 | Adding flit 3 to VC 2 at input 9 (state: idle, empty).
38 | network_0/router_level3_151 | Using precomputed lookahead routing information for VC 2 at input 9 (front: 3).
38 | network_0/router_level3_151/buf_9/vc_2 | Changing state from idle to vc_alloc.
38 | network_0/router_level3_151 | Beginning VC allocation for VC 2 at input 9 (front: 3).
38 | network_0/router_level3_151 |   Requesting VC 0 at output 1 (in_pri: 0, out_pri: 0).
38 | network_0/router_level3_151 |   Requesting VC 1 at output 1 (in_pri: 0, out_pri: 0).
38 | network_0/router_level3_151 |   Requesting VC 2 at output 1 (in_pri: 0, out_pri: 0).
38 | network_0/router_level3_151 |   Requesting VC 3 at output 1 (in_pri: 0, out_pri: 0).
38 | network_0/router_level3_151/vc_allocator | Input requests = [ 4 -> [ 60@0 61@0 62@0 63@0 ]  10 -> [ 32@0 33@0 34@0 35@0 ]  18 -> [ 45@0 46@0 47@0 ]  21 -> [ 56@0 57@0 58@0 59@0 ]  28 -> [ 49@0 50@0 51@0 ]  38 -> [ 4@0 5@0 6@0 7@0 ]  53 -> [ 13@0 14@0 15@0 ]  ], output requests = [ 4 -> [ 38@0 ]  5 -> [ 38@0 ]  6 -> [ 38@0 ]  7 -> [ 38@0 ]  13 -> [ 53@0 ]  14 -> [ 53@0 ]  15 -> [ 53@0 ]  32 -> [ 10@0 ]  33 -> [ 10@0 ]  34 -> [ 10@0 ]  35 -> [ 10@0 ]  45 -> [ 18@0 ]  46 -> [ 18@0 ]  47 -> [ 18@0 ]  49 -> [ 28@0 ]  50 -> [ 28@0 ]  51 -> [ 28@0 ]  56 -> [ 21@0 ]  57 -> [ 21@0 ]  58 -> [ 21@0 ]  59 -> [ 21@0 ]  60 -> [ 4@0 ]  61 -> [ 4@0 ]  62 -> [ 4@0 ]  63 -> [ 4@0 ]  ].
38 | network_0/router_level3_151/vc_allocator | Input grants = [ 4 -> 60  10 -> 34  18 -> 45  21 -> 56  28 -> 49  38 -> 4  53 -> 13  ], output grants = [ 4 -> 38  13 -> 53  34 -> 10  45 -> 18  49 -> 28  56 -> 21  60 -> 4  ].
38 | network_0/router_level3_151 | Assigning VC 0 at output 1 to VC 2 at input 9.
38 | network_0/router_level3_151 | Completed VC allocation for VC 2 at input 9 (front: 3).
38 | network_0/router_level3_151 |   Acquiring assigned VC 0 at output 1.
38 | network_0/router_level3_151/buf_9/vc_2 | Changing state from vc_alloc to active.
39 | network_0/router_level3_151 | Beginning switch allocation for VC 2 at input 9 (front: 3).
39 | network_0/router_level3_151 |   Requesting output 1.0 (non-spec, pri: 0).
39 | network_0/router_level3_151/sw_allocator | Input requests = [ 1 -> [ 15@0 ]  2 -> [ 8@0 ]  4 -> [ 11@0 ]  5 -> [ 14@0 ]  7 -> [ 12@0 ]  9 -> [ 1@0 ]  13 -> [ 3@0 ]  ], output requests = [ 1 -> [ 9@0 ]  3 -> [ 13@0 ]  8 -> [ 2@0 ]  11 -> [ 4@0 ]  12 -> [ 7@0 ]  14 -> [ 5@0 ]  15 -> [ 1@0 ]  ].
39 | network_0/router_level3_151/sw_allocator | Input grants = [ 1 -> 15  2 -> 8  4 -> 11  5 -> 14  7 -> 12  9 -> 1  13 -> 3  ], output grants = [ 1 -> 9  3 -> 13  8 -> 2  11 -> 4  12 -> 7  14 -> 5  15 -> 1  ].
39 | network_0/router_level3_151 | Assigning output 1.0 to VC 2 at input 9.0.
39 | network_0/router_level3_151 | Completed switch allocation for VC 2 at input 9 (front: 3).
39 | network_0/router_level3_151 |   Scheduling switch connection from input 9.0 to output 1.0.
40 | network_0/router_level3_151 | Beginning crossbar traversal for flit 3 from input 9.0 to output 1.0.
40 | network_0/router_level3_151 | Completed crossbar traversal for flit 3 from input 9.0 to output 1.0.
40 | network_0/router_level3_151 | Buffering flit 3 at output 1.
40 | network_0/router_level3_151 | Sending flit 3 to channel at output 1.
41 | network_0/network_0_fchan_egress1209 | Beginning channel traversal for flit 3 with delay 1.
41 | network_0/network_0_fchan_egress1209 | Completed channel traversal for flit 3.
42 | node1209 | Ejecting flit 3 (packet 3) from VC 0.
42 | node1209 | Injecting credit for VC 0 into subnet 0.
42 | node1209 | Retiring flit 3 (packet 3, src = 13, dest = 1209, hops = 7, flat = 42).
42 | node1209 | Retiring packet 3 (plat = 42, nlat = 42, frag = 0, src = 13, dest = 1209).
Class 0:
Packet latency average = 225.377
	minimum = 6
	maximum = 741
Network latency average = 225.377
	minimum = 6
	maximum = 741
Slowest packet = 334744
Flit latency average = 225.377
	minimum = 6
	maximum = 741
Slowest flit = 334744
Fragmentation average = 0
	minimum = 0
	maximum = 0
Injected packet rate average = 0.349252
	minimum = 0.299 (at node 3445)
	maximum = 0.402 (at node 1424)
Accepted packet rate average = 0.193042
	minimum = 0.145 (at node 3245)
	maximum = 0.245 (at node 1953)
Injected flit rate average = 0.349252
	minimum = 0.299 (at node 3445)
	maximum = 0.402 (at node 1424)
Accepted flit rate average= 0.193042
	minimum = 0.145 (at node 3245)
	maximum = 0.245 (at node 1953)
Injected packet length average = 1
Accepted packet length average = 1
Total in-flight flits = 640011 (0 measured)
latency change    = 1
throughput change = 1
Class 0:
Packet latency average = 442.946
	minimum = 6
	maximum = 1447
Network latency average = 440.137
	minimum = 6
	maximum = 1447
Slowest packet = 680622
Flit latency average = 440.137
	minimum = 6
	maximum = 1447
Slowest flit = 680622
Fragmentation average = 0
	minimum = 0
	maximum = 0
Injected packet rate average = 0.278819
	minimum = 0.218 (at node 760)
	maximum = 0.3365 (at node 2445)
Accepted packet rate average = 0.194063
	minimum = 0.157 (at node 4086)
	maximum = 0.2295 (at node 1953)
Injected flit rate average = 0.278819
	minimum = 0.218 (at node 760)
	maximum = 0.3365 (at node 2445)
Accepted flit rate average= 0.194063
	minimum = 0.157 (at node 4086)
	maximum = 0.2295 (at node 1953)
Injected packet length average = 1
Accepted packet length average = 1
Total in-flight flits = 697675 (0 measured)
latency change    = 0.491186
throughput change = 0.00526115
Average latency for class 0 exceeded 500 cycles. Aborting simulation.
Too many sample periods needed to converge
Simulation unstable, ending ...
Total run time 238.364
