BEGIN Configuration File: examples/fattree_config_0.70_1_uniform
// $Id: dragonflyconfig 3555 2011-05-16 23:37:55Z dub $

// Copyright (c) 2007-2015, Trustees of The Leland Stanford Junior University
// All rights reserved.
//
// Redistribution and use in source and binary forms, with or without
// modification, are permitted provided that the following conditions are met:
//
// Redistributions of source code must retain the above copyright notice, this
// list of conditions and the following disclaimer.
// Redistributions in binary form must reproduce the above copyright notice,
// this list of conditions and the following disclaimer in the documentation
// and/or other materials provided with the distribution.
//
// THIS SOFTWARE IS PROVIDED BY THE COPYRIGHT HOLDERS AND CONTRIBUTORS "AS IS"
// AND ANY EXPRESS OR IMPLIED WARRANTIES, INCLUDING, BUT NOT LIMITED TO, THE
// IMPLIED WARRANTIES OF MERCHANTABILITY AND FITNESS FOR A PARTICULAR PURPOSE
// ARE DISCLAIMED. IN NO EVENT SHALL THE COPYRIGHT OWNER OR CONTRIBUTORS BE
// LIABLE FOR ANY DIRECT, INDIRECT, INCIDENTAL, SPECIAL, EXEMPLARY, OR
// CONSEQUENTIAL DAMAGES (INCLUDING, BUT NOT LIMITED TO, PROCUREMENT OF
// SUBSTITUTE GOODS OR SERVICES; LOSS OF USE, DATA, OR PROFITS; OR BUSINESS
// INTERRUPTION) HOWEVER CAUSED AND ON ANY THEORY OF LIABILITY, WHETHER IN
// CONTRACT, STRICT LIABILITY, OR TORT (INCLUDING NEGLIGENCE OR OTHERWISE)
// ARISING IN ANY WAY OUT OF THE USE OF THIS SOFTWARE, EVEN IF ADVISED OF THE
// POSSIBILITY OF SUCH DAMAGE.


hold_switch_for_packet=1;

vc_buf_size = 16;


wait_for_tail_credit = 0;

//
// Router architecture
//
vc_allocator = separable_input_first; 
sw_allocator = separable_input_first;
alloc_iters  = 1;

credit_delay   = 2;
routing_delay  = 0;
vc_alloc_delay = 1;
sw_alloc_delay = 1;
st_final_delay = 1;

input_speedup     = 1;
output_speedup    = 1;
internal_speedup  = 1.0;


warmup_periods = 3;
sim_count          = 1;

sample_period  = 1000;  

routing_function = nca;
num_vcs     = 4;

priority = none;
traffic = uniform;


injection_rate = 0.70;
packet_size = 1;
injection_rate_uses_flits=1;

topology = fattree;

k  = 8;
n  = 4;
t = 1;

watch_file = watchfile.txt;
watch_out=-;
stats_out = examples/fattree_config_0.70_1_uniform.m;

END Configuration File: examples/fattree_config_0.70_1_uniform
Fat Tree
 k = 8 levels = 4
 each switch - total radix =  16
 # of switches = 2048
 # of channels = 24576
 # of nodes ( size of network ) = 4096
 tapering factor = 1
0 | node3 | Enqueuing flit 1 (packet 1) at time 0.
0 | node4 | Enqueuing flit 2 (packet 2) at time 0.
0 | node5 | Enqueuing flit 3 (packet 3) at time 0.
0 | node8 | Enqueuing flit 4 (packet 4) at time 0.
0 | node9 | Enqueuing flit 5 (packet 5) at time 0.
0 | node11 | Enqueuing flit 6 (packet 6) at time 0.
0 | node12 | Enqueuing flit 7 (packet 7) at time 0.
0 | node13 | Enqueuing flit 8 (packet 8) at time 0.
0 | node14 | Enqueuing flit 9 (packet 9) at time 0.
0 | node15 | Enqueuing flit 10 (packet 10) at time 0.
0 | traffic_manager | Finding output VC for flit 1:
0 | traffic_manager |   Selected output VC 0.
0 | node3 | Generating lookahead routing info for flit 1.
0 | node3 | Injecting flit 1 into subnet 0 at time 0 with priority 0.
0 | traffic_manager | Finding output VC for flit 2:
0 | traffic_manager |   Selected output VC 0.
0 | node4 | Generating lookahead routing info for flit 2.
0 | node4 | Injecting flit 2 into subnet 0 at time 0 with priority 0.
0 | traffic_manager | Finding output VC for flit 3:
0 | traffic_manager |   Selected output VC 0.
0 | node5 | Generating lookahead routing info for flit 3.
0 | node5 | Injecting flit 3 into subnet 0 at time 0 with priority 0.
0 | traffic_manager | Finding output VC for flit 4:
0 | traffic_manager |   Selected output VC 0.
0 | node8 | Generating lookahead routing info for flit 4.
0 | node8 | Injecting flit 4 into subnet 0 at time 0 with priority 0.
0 | traffic_manager | Finding output VC for flit 5:
0 | traffic_manager |   Selected output VC 0.
0 | node9 | Generating lookahead routing info for flit 5.
0 | node9 | Injecting flit 5 into subnet 0 at time 0 with priority 0.
0 | traffic_manager | Finding output VC for flit 6:
0 | traffic_manager |   Selected output VC 0.
0 | node11 | Generating lookahead routing info for flit 6.
0 | node11 | Injecting flit 6 into subnet 0 at time 0 with priority 0.
0 | traffic_manager | Finding output VC for flit 7:
0 | traffic_manager |   Selected output VC 0.
0 | node12 | Generating lookahead routing info for flit 7.
0 | node12 | Injecting flit 7 into subnet 0 at time 0 with priority 0.
0 | traffic_manager | Finding output VC for flit 8:
0 | traffic_manager |   Selected output VC 0.
0 | node13 | Generating lookahead routing info for flit 8.
0 | node13 | Injecting flit 8 into subnet 0 at time 0 with priority 0.
0 | traffic_manager | Finding output VC for flit 9:
0 | traffic_manager |   Selected output VC 0.
0 | node14 | Generating lookahead routing info for flit 9.
0 | node14 | Injecting flit 9 into subnet 0 at time 0 with priority 0.
0 | traffic_manager | Finding output VC for flit 10:
0 | traffic_manager |   Selected output VC 0.
0 | node15 | Generating lookahead routing info for flit 10.
0 | node15 | Injecting flit 10 into subnet 0 at time 0 with priority 0.
1 | network_0/network_0_fchan_ingress3 | Beginning channel traversal for flit 1 with delay 1.
1 | network_0/network_0_fchan_ingress4 | Beginning channel traversal for flit 2 with delay 1.
1 | network_0/network_0_fchan_ingress5 | Beginning channel traversal for flit 3 with delay 1.
1 | network_0/network_0_fchan_ingress8 | Beginning channel traversal for flit 4 with delay 1.
1 | network_0/network_0_fchan_ingress9 | Beginning channel traversal for flit 5 with delay 1.
1 | network_0/network_0_fchan_ingress11 | Beginning channel traversal for flit 6 with delay 1.
1 | network_0/network_0_fchan_ingress12 | Beginning channel traversal for flit 7 with delay 1.
1 | network_0/network_0_fchan_ingress13 | Beginning channel traversal for flit 8 with delay 1.
1 | network_0/network_0_fchan_ingress14 | Beginning channel traversal for flit 9 with delay 1.
1 | network_0/network_0_fchan_ingress15 | Beginning channel traversal for flit 10 with delay 1.
1 | network_0/network_0_fchan_ingress3 | Completed channel traversal for flit 1.
1 | network_0/network_0_fchan_ingress4 | Completed channel traversal for flit 2.
1 | network_0/network_0_fchan_ingress5 | Completed channel traversal for flit 3.
1 | network_0/network_0_fchan_ingress8 | Completed channel traversal for flit 4.
1 | network_0/network_0_fchan_ingress9 | Completed channel traversal for flit 5.
1 | network_0/network_0_fchan_ingress11 | Completed channel traversal for flit 6.
1 | network_0/network_0_fchan_ingress12 | Completed channel traversal for flit 7.
1 | network_0/network_0_fchan_ingress13 | Completed channel traversal for flit 8.
1 | network_0/network_0_fchan_ingress14 | Completed channel traversal for flit 9.
1 | network_0/network_0_fchan_ingress15 | Completed channel traversal for flit 10.
2 | network_0/router_level3_0 | Received flit 1 from channel at input 3.
2 | network_0/router_level3_0 | Received flit 2 from channel at input 4.
2 | network_0/router_level3_0 | Received flit 3 from channel at input 5.
2 | network_0/router_level3_1 | Received flit 4 from channel at input 0.
2 | network_0/router_level3_1 | Received flit 5 from channel at input 1.
2 | network_0/router_level3_1 | Received flit 6 from channel at input 3.
2 | network_0/router_level3_1 | Received flit 7 from channel at input 4.
2 | network_0/router_level3_1 | Received flit 8 from channel at input 5.
2 | network_0/router_level3_1 | Received flit 9 from channel at input 6.
2 | network_0/router_level3_1 | Received flit 10 from channel at input 7.
2 | network_0/router_level3_0 | Adding flit 1 to VC 0 at input 3 (state: idle, empty).
2 | network_0/router_level3_0 | Using precomputed lookahead routing information for VC 0 at input 3 (front: 1).
2 | network_0/router_level3_0/buf_3/vc_0 | Changing state from idle to vc_alloc.
2 | network_0/router_level3_0 | Adding flit 2 to VC 0 at input 4 (state: idle, empty).
2 | network_0/router_level3_0 | Using precomputed lookahead routing information for VC 0 at input 4 (front: 2).
2 | network_0/router_level3_0/buf_4/vc_0 | Changing state from idle to vc_alloc.
2 | network_0/router_level3_0 | Adding flit 3 to VC 0 at input 5 (state: idle, empty).
2 | network_0/router_level3_0 | Using precomputed lookahead routing information for VC 0 at input 5 (front: 3).
2 | network_0/router_level3_0/buf_5/vc_0 | Changing state from idle to vc_alloc.
2 | network_0/router_level3_0 | Beginning VC allocation for VC 0 at input 3 (front: 1).
2 | network_0/router_level3_0 |   Requesting VC 0 at output 15 (in_pri: 0, out_pri: 0).
2 | network_0/router_level3_0 |   Requesting VC 1 at output 15 (in_pri: 0, out_pri: 0).
2 | network_0/router_level3_0 |   Requesting VC 2 at output 15 (in_pri: 0, out_pri: 0).
2 | network_0/router_level3_0 |   Requesting VC 3 at output 15 (in_pri: 0, out_pri: 0).
2 | network_0/router_level3_0 | Beginning VC allocation for VC 0 at input 4 (front: 2).
2 | network_0/router_level3_0 |   Requesting VC 0 at output 12 (in_pri: 0, out_pri: 0).
2 | network_0/router_level3_0 |   Requesting VC 1 at output 12 (in_pri: 0, out_pri: 0).
2 | network_0/router_level3_0 |   Requesting VC 2 at output 12 (in_pri: 0, out_pri: 0).
2 | network_0/router_level3_0 |   Requesting VC 3 at output 12 (in_pri: 0, out_pri: 0).
2 | network_0/router_level3_0 | Beginning VC allocation for VC 0 at input 5 (front: 3).
2 | network_0/router_level3_0 |   Requesting VC 0 at output 15 (in_pri: 0, out_pri: 0).
2 | network_0/router_level3_0 |   Requesting VC 1 at output 15 (in_pri: 0, out_pri: 0).
2 | network_0/router_level3_0 |   Requesting VC 2 at output 15 (in_pri: 0, out_pri: 0).
2 | network_0/router_level3_0 |   Requesting VC 3 at output 15 (in_pri: 0, out_pri: 0).
2 | network_0/router_level3_0/vc_allocator | Input requests = [ 4 -> [ 36@0 37@0 38@0 39@0 ]  12 -> [ 60@0 61@0 62@0 63@0 ]  16 -> [ 48@0 49@0 50@0 51@0 ]  20 -> [ 60@0 61@0 62@0 63@0 ]  ], output requests = [ 36 -> [ 4@0 ]  37 -> [ 4@0 ]  38 -> [ 4@0 ]  39 -> [ 4@0 ]  48 -> [ 16@0 ]  49 -> [ 16@0 ]  50 -> [ 16@0 ]  51 -> [ 16@0 ]  60 -> [ 12@0 20@0 ]  61 -> [ 12@0 20@0 ]  62 -> [ 12@0 20@0 ]  63 -> [ 12@0 20@0 ]  ].
2 | network_0/router_level3_0/vc_allocator | Input grants = [ 4 -> 36  12 -> 60  16 -> 48  ], output grants = [ 36 -> 4  48 -> 16  60 -> 12  ].
2 | network_0/router_level3_0 | Assigning VC 0 at output 15 to VC 0 at input 3.
2 | network_0/router_level3_0 | Assigning VC 0 at output 12 to VC 0 at input 4.
2 | network_0/router_level3_0 | VC allocation failed for VC 0 at input 5.
2 | network_0/router_level3_0 | Completed VC allocation for VC 0 at input 3 (front: 1).
2 | network_0/router_level3_0 |   Acquiring assigned VC 0 at output 15.
2 | network_0/router_level3_0/buf_3/vc_0 | Changing state from vc_alloc to active.
2 | network_0/router_level3_0 | Completed VC allocation for VC 0 at input 4 (front: 2).
2 | network_0/router_level3_0 |   Acquiring assigned VC 0 at output 12.
2 | network_0/router_level3_0/buf_4/vc_0 | Changing state from vc_alloc to active.
2 | network_0/router_level3_0 | Completed VC allocation for VC 0 at input 5 (front: 3).
2 | network_0/router_level3_0 |   No output VC allocated.
2 | network_0/router_level3_1 | Adding flit 4 to VC 0 at input 0 (state: idle, empty).
2 | network_0/router_level3_1 | Using precomputed lookahead routing information for VC 0 at input 0 (front: 4).
2 | network_0/router_level3_1/buf_0/vc_0 | Changing state from idle to vc_alloc.
2 | network_0/router_level3_1 | Adding flit 5 to VC 0 at input 1 (state: idle, empty).
2 | network_0/router_level3_1 | Using precomputed lookahead routing information for VC 0 at input 1 (front: 5).
2 | network_0/router_level3_1/buf_1/vc_0 | Changing state from idle to vc_alloc.
2 | network_0/router_level3_1 | Adding flit 6 to VC 0 at input 3 (state: idle, empty).
2 | network_0/router_level3_1 | Using precomputed lookahead routing information for VC 0 at input 3 (front: 6).
2 | network_0/router_level3_1/buf_3/vc_0 | Changing state from idle to vc_alloc.
2 | network_0/router_level3_1 | Adding flit 7 to VC 0 at input 4 (state: idle, empty).
2 | network_0/router_level3_1 | Using precomputed lookahead routing information for VC 0 at input 4 (front: 7).
2 | network_0/router_level3_1/buf_4/vc_0 | Changing state from idle to vc_alloc.
2 | network_0/router_level3_1 | Adding flit 8 to VC 0 at input 5 (state: idle, empty).
2 | network_0/router_level3_1 | Using precomputed lookahead routing information for VC 0 at input 5 (front: 8).
2 | network_0/router_level3_1/buf_5/vc_0 | Changing state from idle to vc_alloc.
2 | network_0/router_level3_1 | Adding flit 9 to VC 0 at input 6 (state: idle, empty).
2 | network_0/router_level3_1 | Using precomputed lookahead routing information for VC 0 at input 6 (front: 9).
2 | network_0/router_level3_1/buf_6/vc_0 | Changing state from idle to vc_alloc.
2 | network_0/router_level3_1 | Adding flit 10 to VC 0 at input 7 (state: idle, empty).
2 | network_0/router_level3_1 | Using precomputed lookahead routing information for VC 0 at input 7 (front: 10).
2 | network_0/router_level3_1/buf_7/vc_0 | Changing state from idle to vc_alloc.
2 | network_0/router_level3_1 | Beginning VC allocation for VC 0 at input 0 (front: 4).
2 | network_0/router_level3_1 |   Requesting VC 0 at output 10 (in_pri: 0, out_pri: 0).
2 | network_0/router_level3_1 |   Requesting VC 1 at output 10 (in_pri: 0, out_pri: 0).
2 | network_0/router_level3_1 |   Requesting VC 2 at output 10 (in_pri: 0, out_pri: 0).
2 | network_0/router_level3_1 |   Requesting VC 3 at output 10 (in_pri: 0, out_pri: 0).
2 | network_0/router_level3_1 | Beginning VC allocation for VC 0 at input 1 (front: 5).
2 | network_0/router_level3_1 |   Requesting VC 0 at output 14 (in_pri: 0, out_pri: 0).
2 | network_0/router_level3_1 |   Requesting VC 1 at output 14 (in_pri: 0, out_pri: 0).
2 | network_0/router_level3_1 |   Requesting VC 2 at output 14 (in_pri: 0, out_pri: 0).
2 | network_0/router_level3_1 |   Requesting VC 3 at output 14 (in_pri: 0, out_pri: 0).
2 | network_0/router_level3_1 | Beginning VC allocation for VC 0 at input 3 (front: 6).
2 | network_0/router_level3_1 |   Requesting VC 0 at output 15 (in_pri: 0, out_pri: 0).
2 | network_0/router_level3_1 |   Requesting VC 1 at output 15 (in_pri: 0, out_pri: 0).
2 | network_0/router_level3_1 |   Requesting VC 2 at output 15 (in_pri: 0, out_pri: 0).
2 | network_0/router_level3_1 |   Requesting VC 3 at output 15 (in_pri: 0, out_pri: 0).
2 | network_0/router_level3_1 | Beginning VC allocation for VC 0 at input 4 (front: 7).
2 | network_0/router_level3_1 |   Requesting VC 0 at output 13 (in_pri: 0, out_pri: 0).
2 | network_0/router_level3_1 |   Requesting VC 1 at output 13 (in_pri: 0, out_pri: 0).
2 | network_0/router_level3_1 |   Requesting VC 2 at output 13 (in_pri: 0, out_pri: 0).
2 | network_0/router_level3_1 |   Requesting VC 3 at output 13 (in_pri: 0, out_pri: 0).
2 | network_0/router_level3_1 | Beginning VC allocation for VC 0 at input 5 (front: 8).
2 | network_0/router_level3_1 |   Requesting VC 0 at output 12 (in_pri: 0, out_pri: 0).
2 | network_0/router_level3_1 |   Requesting VC 1 at output 12 (in_pri: 0, out_pri: 0).
2 | network_0/router_level3_1 |   Requesting VC 2 at output 12 (in_pri: 0, out_pri: 0).
2 | network_0/router_level3_1 |   Requesting VC 3 at output 12 (in_pri: 0, out_pri: 0).
2 | network_0/router_level3_1 | Beginning VC allocation for VC 0 at input 6 (front: 9).
2 | network_0/router_level3_1 |   Requesting VC 0 at output 15 (in_pri: 0, out_pri: 0).
2 | network_0/router_level3_1 |   Requesting VC 1 at output 15 (in_pri: 0, out_pri: 0).
2 | network_0/router_level3_1 |   Requesting VC 2 at output 15 (in_pri: 0, out_pri: 0).
2 | network_0/router_level3_1 |   Requesting VC 3 at output 15 (in_pri: 0, out_pri: 0).
2 | network_0/router_level3_1 | Beginning VC allocation for VC 0 at input 7 (front: 10).
2 | network_0/router_level3_1 |   Requesting VC 0 at output 10 (in_pri: 0, out_pri: 0).
2 | network_0/router_level3_1 |   Requesting VC 1 at output 10 (in_pri: 0, out_pri: 0).
2 | network_0/router_level3_1 |   Requesting VC 2 at output 10 (in_pri: 0, out_pri: 0).
2 | network_0/router_level3_1 |   Requesting VC 3 at output 10 (in_pri: 0, out_pri: 0).
2 | network_0/router_level3_1/vc_allocator | Input requests = [ 0 -> [ 40@0 41@0 42@0 43@0 ]  4 -> [ 56@0 57@0 58@0 59@0 ]  12 -> [ 60@0 61@0 62@0 63@0 ]  16 -> [ 52@0 53@0 54@0 55@0 ]  20 -> [ 48@0 49@0 50@0 51@0 ]  24 -> [ 60@0 61@0 62@0 63@0 ]  28 -> [ 40@0 41@0 42@0 43@0 ]  ], output requests = [ 40 -> [ 0@0 28@0 ]  41 -> [ 0@0 28@0 ]  42 -> [ 0@0 28@0 ]  43 -> [ 0@0 28@0 ]  48 -> [ 20@0 ]  49 -> [ 20@0 ]  50 -> [ 20@0 ]  51 -> [ 20@0 ]  52 -> [ 16@0 ]  53 -> [ 16@0 ]  54 -> [ 16@0 ]  55 -> [ 16@0 ]  56 -> [ 4@0 ]  57 -> [ 4@0 ]  58 -> [ 4@0 ]  59 -> [ 4@0 ]  60 -> [ 12@0 24@0 ]  61 -> [ 12@0 24@0 ]  62 -> [ 12@0 24@0 ]  63 -> [ 12@0 24@0 ]  ].
2 | network_0/router_level3_1/vc_allocator | Input grants = [ 0 -> 40  4 -> 56  12 -> 60  16 -> 52  20 -> 48  ], output grants = [ 40 -> 0  48 -> 20  52 -> 16  56 -> 4  60 -> 12  ].
2 | network_0/router_level3_1 | Assigning VC 0 at output 10 to VC 0 at input 0.
2 | network_0/router_level3_1 | Assigning VC 0 at output 14 to VC 0 at input 1.
2 | network_0/router_level3_1 | Assigning VC 0 at output 15 to VC 0 at input 3.
2 | network_0/router_level3_1 | Assigning VC 0 at output 13 to VC 0 at input 4.
2 | network_0/router_level3_1 | Assigning VC 0 at output 12 to VC 0 at input 5.
2 | network_0/router_level3_1 | VC allocation failed for VC 0 at input 6.
2 | network_0/router_level3_1 | VC allocation failed for VC 0 at input 7.
2 | network_0/router_level3_1 | Completed VC allocation for VC 0 at input 0 (front: 4).
2 | network_0/router_level3_1 |   Acquiring assigned VC 0 at output 10.
2 | network_0/router_level3_1/buf_0/vc_0 | Changing state from vc_alloc to active.
2 | network_0/router_level3_1 | Completed VC allocation for VC 0 at input 1 (front: 5).
2 | network_0/router_level3_1 |   Acquiring assigned VC 0 at output 14.
2 | network_0/router_level3_1/buf_1/vc_0 | Changing state from vc_alloc to active.
2 | network_0/router_level3_1 | Completed VC allocation for VC 0 at input 3 (front: 6).
2 | network_0/router_level3_1 |   Acquiring assigned VC 0 at output 15.
2 | network_0/router_level3_1/buf_3/vc_0 | Changing state from vc_alloc to active.
2 | network_0/router_level3_1 | Completed VC allocation for VC 0 at input 4 (front: 7).
2 | network_0/router_level3_1 |   Acquiring assigned VC 0 at output 13.
2 | network_0/router_level3_1/buf_4/vc_0 | Changing state from vc_alloc to active.
2 | network_0/router_level3_1 | Completed VC allocation for VC 0 at input 5 (front: 8).
2 | network_0/router_level3_1 |   Acquiring assigned VC 0 at output 12.
2 | network_0/router_level3_1/buf_5/vc_0 | Changing state from vc_alloc to active.
2 | network_0/router_level3_1 | Completed VC allocation for VC 0 at input 6 (front: 9).
2 | network_0/router_level3_1 |   No output VC allocated.
2 | network_0/router_level3_1 | Completed VC allocation for VC 0 at input 7 (front: 10).
2 | network_0/router_level3_1 |   No output VC allocated.
3 | network_0/router_level3_0 | Beginning VC allocation for VC 0 at input 5 (front: 3).
3 | network_0/router_level3_0 |   VC 0 at output 15 is in use by VC 0 at input 3 (front flit: 1).
3 | network_0/router_level3_0 |   Requesting VC 1 at output 15 (in_pri: 0, out_pri: 0).
3 | network_0/router_level3_0 |   Requesting VC 2 at output 15 (in_pri: 0, out_pri: 0).
3 | network_0/router_level3_0 |   Requesting VC 3 at output 15 (in_pri: 0, out_pri: 0).
3 | network_0/router_level3_0/vc_allocator | Input requests = [ 0 -> [ 61@0 62@0 63@0 ]  5 -> [ 40@0 41@0 42@0 43@0 ]  8 -> [ 44@0 45@0 46@0 47@0 ]  13 -> [ 32@0 33@0 34@0 35@0 ]  17 -> [ 32@0 33@0 34@0 35@0 ]  20 -> [ 61@0 62@0 63@0 ]  21 -> [ 61@0 62@0 63@0 ]  24 -> [ 32@0 33@0 34@0 35@0 ]  28 -> [ 49@0 50@0 51@0 ]  ], output requests = [ 32 -> [ 13@0 17@0 24@0 ]  33 -> [ 13@0 17@0 24@0 ]  34 -> [ 13@0 17@0 24@0 ]  35 -> [ 13@0 17@0 24@0 ]  40 -> [ 5@0 ]  41 -> [ 5@0 ]  42 -> [ 5@0 ]  43 -> [ 5@0 ]  44 -> [ 8@0 ]  45 -> [ 8@0 ]  46 -> [ 8@0 ]  47 -> [ 8@0 ]  49 -> [ 28@0 ]  50 -> [ 28@0 ]  51 -> [ 28@0 ]  61 -> [ 0@0 20@0 21@0 ]  62 -> [ 0@0 20@0 21@0 ]  63 -> [ 0@0 20@0 21@0 ]  ].
3 | network_0/router_level3_0/vc_allocator | Input grants = [ 0 -> 61  5 -> 40  8 -> 44  13 -> 32  28 -> 49  ], output grants = [ 32 -> 13  40 -> 5  44 -> 8  49 -> 28  61 -> 0  ].
3 | network_0/router_level3_0 | VC allocation failed for VC 0 at input 5.
3 | network_0/router_level3_0 | Beginning switch allocation for VC 0 at input 3 (front: 1).
3 | network_0/router_level3_0 |   Requesting output 15.0 (non-spec, pri: 0).
3 | network_0/router_level3_0 | Beginning switch allocation for VC 0 at input 4 (front: 2).
3 | network_0/router_level3_0 |   Requesting output 12.0 (non-spec, pri: 0).
3 | network_0/router_level3_0/sw_allocator | Input requests = [ 1 -> [ 9@0 ]  3 -> [ 15@0 ]  4 -> [ 12@0 ]  ], output requests = [ 9 -> [ 1@0 ]  12 -> [ 4@0 ]  15 -> [ 3@0 ]  ].
3 | network_0/router_level3_0/sw_allocator | Input grants = [ 1 -> 9  3 -> 15  4 -> 12  ], output grants = [ 9 -> 1  12 -> 4  15 -> 3  ].
3 | network_0/router_level3_0 | Assigning output 15.0 to VC 0 at input 3.0.
3 | network_0/router_level3_0 | Assigning output 12.0 to VC 0 at input 4.0.
3 | network_0/router_level3_0 | Completed VC allocation for VC 0 at input 5 (front: 3).
3 | network_0/router_level3_0 |   No output VC allocated.
3 | network_0/router_level3_0 | Completed switch allocation for VC 0 at input 3 (front: 1).
3 | network_0/router_level3_0 |   Scheduling switch connection from input 3.0 to output 15.0.
3 | network_0/router_level3_0 | Updating lookahead routing information for flit 1.
3 | network_0/router_level3_0 | Completed switch allocation for VC 0 at input 4 (front: 2).
3 | network_0/router_level3_0 |   Scheduling switch connection from input 4.0 to output 12.0.
3 | network_0/router_level3_0 | Updating lookahead routing information for flit 2.
3 | network_0/router_level3_1 | Beginning VC allocation for VC 0 at input 6 (front: 9).
3 | network_0/router_level3_1 |   VC 0 at output 15 is in use by VC 0 at input 3 (front flit: 6).
3 | network_0/router_level3_1 |   Requesting VC 1 at output 15 (in_pri: 0, out_pri: 0).
3 | network_0/router_level3_1 |   Requesting VC 2 at output 15 (in_pri: 0, out_pri: 0).
3 | network_0/router_level3_1 |   Requesting VC 3 at output 15 (in_pri: 0, out_pri: 0).
3 | network_0/router_level3_1 | Beginning VC allocation for VC 0 at input 7 (front: 10).
3 | network_0/router_level3_1 |   VC 0 at output 10 is in use by VC 0 at input 0 (front flit: 4).
3 | network_0/router_level3_1 |   Requesting VC 1 at output 10 (in_pri: 0, out_pri: 0).
3 | network_0/router_level3_1 |   Requesting VC 2 at output 10 (in_pri: 0, out_pri: 0).
3 | network_0/router_level3_1 |   Requesting VC 3 at output 10 (in_pri: 0, out_pri: 0).
3 | network_0/router_level3_1/vc_allocator | Input requests = [ 5 -> [ 41@0 42@0 43@0 ]  17 -> [ 36@0 37@0 38@0 39@0 ]  21 -> [ 44@0 45@0 46@0 47@0 ]  24 -> [ 61@0 62@0 63@0 ]  25 -> [ 36@0 37@0 38@0 39@0 ]  28 -> [ 41@0 42@0 43@0 ]  ], output requests = [ 36 -> [ 17@0 25@0 ]  37 -> [ 17@0 25@0 ]  38 -> [ 17@0 25@0 ]  39 -> [ 17@0 25@0 ]  41 -> [ 5@0 28@0 ]  42 -> [ 5@0 28@0 ]  43 -> [ 5@0 28@0 ]  44 -> [ 21@0 ]  45 -> [ 21@0 ]  46 -> [ 21@0 ]  47 -> [ 21@0 ]  61 -> [ 24@0 ]  62 -> [ 24@0 ]  63 -> [ 24@0 ]  ].
3 | network_0/router_level3_1/vc_allocator | Input grants = [ 5 -> 41  17 -> 36  21 -> 44  24 -> 61  ], output grants = [ 36 -> 17  41 -> 5  44 -> 21  61 -> 24  ].
3 | network_0/router_level3_1 | Assigning VC 1 at output 15 to VC 0 at input 6.
3 | network_0/router_level3_1 | VC allocation failed for VC 0 at input 7.
3 | network_0/router_level3_1 | Beginning switch allocation for VC 0 at input 0 (front: 4).
3 | network_0/router_level3_1 |   Requesting output 10.0 (non-spec, pri: 0).
3 | network_0/router_level3_1 | Beginning switch allocation for VC 0 at input 1 (front: 5).
3 | network_0/router_level3_1 |   Requesting output 14.0 (non-spec, pri: 0).
3 | network_0/router_level3_1 | Beginning switch allocation for VC 0 at input 3 (front: 6).
3 | network_0/router_level3_1 |   Requesting output 15.0 (non-spec, pri: 0).
3 | network_0/router_level3_1 | Beginning switch allocation for VC 0 at input 4 (front: 7).
3 | network_0/router_level3_1 |   Requesting output 13.0 (non-spec, pri: 0).
3 | network_0/router_level3_1 | Beginning switch allocation for VC 0 at input 5 (front: 8).
3 | network_0/router_level3_1 |   Requesting output 12.0 (non-spec, pri: 0).
3 | network_0/router_level3_1/sw_allocator | Input requests = [ 0 -> [ 10@0 ]  1 -> [ 14@0 ]  3 -> [ 15@0 ]  4 -> [ 13@0 ]  5 -> [ 12@0 ]  ], output requests = [ 10 -> [ 0@0 ]  12 -> [ 5@0 ]  13 -> [ 4@0 ]  14 -> [ 1@0 ]  15 -> [ 3@0 ]  ].
3 | network_0/router_level3_1/sw_allocator | Input grants = [ 0 -> 10  1 -> 14  3 -> 15  4 -> 13  5 -> 12  ], output grants = [ 10 -> 0  12 -> 5  13 -> 4  14 -> 1  15 -> 3  ].
3 | network_0/router_level3_1 | Assigning output 10.0 to VC 0 at input 0.0.
3 | network_0/router_level3_1 | Assigning output 14.0 to VC 0 at input 1.0.
3 | network_0/router_level3_1 | Assigning output 15.0 to VC 0 at input 3.0.
3 | network_0/router_level3_1 | Assigning output 13.0 to VC 0 at input 4.0.
3 | network_0/router_level3_1 | Assigning output 12.0 to VC 0 at input 5.0.
3 | network_0/router_level3_1 | Completed VC allocation for VC 0 at input 6 (front: 9).
3 | network_0/router_level3_1 |   Acquiring assigned VC 1 at output 15.
3 | network_0/router_level3_1/buf_6/vc_0 | Changing state from vc_alloc to active.
3 | network_0/router_level3_1 | Completed VC allocation for VC 0 at input 7 (front: 10).
3 | network_0/router_level3_1 |   No output VC allocated.
3 | network_0/router_level3_1 | Completed switch allocation for VC 0 at input 0 (front: 4).
3 | network_0/router_level3_1 |   Scheduling switch connection from input 0.0 to output 10.0.
3 | network_0/router_level3_1 | Updating lookahead routing information for flit 4.
3 | network_0/router_level3_1 | Completed switch allocation for VC 0 at input 1 (front: 5).
3 | network_0/router_level3_1 |   Scheduling switch connection from input 1.0 to output 14.0.
3 | network_0/router_level3_1 | Updating lookahead routing information for flit 5.
3 | network_0/router_level3_1 | Completed switch allocation for VC 0 at input 3 (front: 6).
3 | network_0/router_level3_1 |   Scheduling switch connection from input 3.0 to output 15.0.
3 | network_0/router_level3_1 | Updating lookahead routing information for flit 6.
3 | network_0/router_level3_1 | Completed switch allocation for VC 0 at input 4 (front: 7).
3 | network_0/router_level3_1 |   Scheduling switch connection from input 4.0 to output 13.0.
3 | network_0/router_level3_1 | Updating lookahead routing information for flit 7.
3 | network_0/router_level3_1 | Completed switch allocation for VC 0 at input 5 (front: 8).
3 | network_0/router_level3_1 |   Scheduling switch connection from input 5.0 to output 12.0.
3 | network_0/router_level3_1 | Updating lookahead routing information for flit 8.
4 | network_0/router_level3_0 | Beginning VC allocation for VC 0 at input 5 (front: 3).
4 | network_0/router_level3_0 |   Requesting VC 0 at output 15 (in_pri: 0, out_pri: 0).
4 | network_0/router_level3_0 |   VC 1 at output 15 is in use by VC 0 at input 0 (front flit: 2823).
4 | network_0/router_level3_0 |   Requesting VC 2 at output 15 (in_pri: 0, out_pri: 0).
4 | network_0/router_level3_0 |   Requesting VC 3 at output 15 (in_pri: 0, out_pri: 0).
4 | network_0/router_level3_0/vc_allocator | Input requests = [ 1 -> [ 33@0 34@0 35@0 ]  6 -> [ 33@0 34@0 35@0 ]  9 -> [ 56@0 57@0 58@0 59@0 ]  14 -> [ 33@0 34@0 35@0 ]  17 -> [ 33@0 34@0 35@0 ]  20 -> [ 60@0 62@0 63@0 ]  21 -> [ 60@0 62@0 63@0 ]  22 -> [ 36@0 37@0 38@0 39@0 ]  24 -> [ 33@0 34@0 35@0 ]  25 -> [ 45@0 46@0 47@0 ]  ], output requests = [ 33 -> [ 1@0 6@0 14@0 17@0 24@0 ]  34 -> [ 1@0 6@0 14@0 17@0 24@0 ]  35 -> [ 1@0 6@0 14@0 17@0 24@0 ]  36 -> [ 22@0 ]  37 -> [ 22@0 ]  38 -> [ 22@0 ]  39 -> [ 22@0 ]  45 -> [ 25@0 ]  46 -> [ 25@0 ]  47 -> [ 25@0 ]  56 -> [ 9@0 ]  57 -> [ 9@0 ]  58 -> [ 9@0 ]  59 -> [ 9@0 ]  60 -> [ 20@0 21@0 ]  62 -> [ 20@0 21@0 ]  63 -> [ 20@0 21@0 ]  ].
4 | network_0/router_level3_0/vc_allocator | Input grants = [ 1 -> 33  9 -> 56  20 -> 60  22 -> 36  25 -> 45  ], output grants = [ 33 -> 1  36 -> 22  45 -> 25  56 -> 9  60 -> 20  ].
4 | network_0/router_level3_0 | Assigning VC 0 at output 15 to VC 0 at input 5.
4 | network_0/router_level3_0 | Beginning crossbar traversal for flit 1 from input 3.0 to output 15.0.
4 | network_0/router_level3_0 | Beginning crossbar traversal for flit 2 from input 4.0 to output 12.0.
4 | network_0/router_level3_0 | Completed VC allocation for VC 0 at input 5 (front: 3).
4 | network_0/router_level3_0 |   Acquiring assigned VC 0 at output 15.
4 | network_0/router_level3_0/buf_5/vc_0 | Changing state from vc_alloc to active.
4 | network_0/router_level3_0 | Completed crossbar traversal for flit 1 from input 3.0 to output 15.0.
4 | network_0/router_level3_0 | Buffering flit 1 at output 15.
4 | network_0/router_level3_0 | Completed crossbar traversal for flit 2 from input 4.0 to output 12.0.
4 | network_0/router_level3_0 | Buffering flit 2 at output 12.
4 | network_0/router_level3_1 | Beginning VC allocation for VC 0 at input 7 (front: 10).
4 | network_0/router_level3_1 |   Requesting VC 0 at output 10 (in_pri: 0, out_pri: 0).
4 | network_0/router_level3_1 |   VC 1 at output 10 is in use by VC 1 at input 1 (front flit: 2831).
4 | network_0/router_level3_1 |   Requesting VC 2 at output 10 (in_pri: 0, out_pri: 0).
4 | network_0/router_level3_1 |   Requesting VC 3 at output 10 (in_pri: 0, out_pri: 0).
4 | network_0/router_level3_1/vc_allocator | Input requests = [ 1 -> [ 45@0 46@0 47@0 ]  6 -> [ 52@0 53@0 54@0 55@0 ]  18 -> [ 37@0 38@0 39@0 ]  22 -> [ 45@0 46@0 47@0 ]  25 -> [ 37@0 38@0 39@0 ]  28 -> [ 40@0 42@0 43@0 ]  ], output requests = [ 37 -> [ 18@0 25@0 ]  38 -> [ 18@0 25@0 ]  39 -> [ 18@0 25@0 ]  40 -> [ 28@0 ]  42 -> [ 28@0 ]  43 -> [ 28@0 ]  45 -> [ 1@0 22@0 ]  46 -> [ 1@0 22@0 ]  47 -> [ 1@0 22@0 ]  52 -> [ 6@0 ]  53 -> [ 6@0 ]  54 -> [ 6@0 ]  55 -> [ 6@0 ]  ].
4 | network_0/router_level3_1/vc_allocator | Input grants = [ 1 -> 45  6 -> 52  18 -> 37  28 -> 40  ], output grants = [ 37 -> 18  40 -> 28  45 -> 1  52 -> 6  ].
4 | network_0/router_level3_1 | Assigning VC 0 at output 10 to VC 0 at input 7.
4 | network_0/router_level3_1 | Beginning switch allocation for VC 0 at input 6 (front: 9).
4 | network_0/router_level3_1 |   Requesting output 15.0 (non-spec, pri: 0).
4 | network_0/router_level3_1/sw_allocator | Input requests = [ 1 -> [ 10@0 ]  4 -> [ 9@0 ]  5 -> [ 11@0 ]  6 -> [ 15@0 ]  ], output requests = [ 9 -> [ 4@0 ]  10 -> [ 1@0 ]  11 -> [ 5@0 ]  15 -> [ 6@0 ]  ].
4 | network_0/router_level3_1/sw_allocator | Input grants = [ 1 -> 10  4 -> 9  5 -> 11  6 -> 15  ], output grants = [ 9 -> 4  10 -> 1  11 -> 5  15 -> 6  ].
4 | network_0/router_level3_1 | Assigning output 15.0 to VC 0 at input 6.0.
4 | network_0/router_level3_1 | Beginning crossbar traversal for flit 4 from input 0.0 to output 10.0.
4 | network_0/router_level3_1 | Beginning crossbar traversal for flit 5 from input 1.0 to output 14.0.
4 | network_0/router_level3_1 | Beginning crossbar traversal for flit 6 from input 3.0 to output 15.0.
4 | network_0/router_level3_1 | Beginning crossbar traversal for flit 7 from input 4.0 to output 13.0.
4 | network_0/router_level3_1 | Beginning crossbar traversal for flit 8 from input 5.0 to output 12.0.
4 | network_0/router_level3_1 | Completed VC allocation for VC 0 at input 7 (front: 10).
4 | network_0/router_level3_1 |   Acquiring assigned VC 0 at output 10.
4 | network_0/router_level3_1/buf_7/vc_0 | Changing state from vc_alloc to active.
4 | network_0/router_level3_1 | Completed switch allocation for VC 0 at input 6 (front: 9).
4 | network_0/router_level3_1 |   Scheduling switch connection from input 6.0 to output 15.0.
4 | network_0/router_level3_1 | Updating lookahead routing information for flit 9.
4 | network_0/router_level3_1 | Completed crossbar traversal for flit 4 from input 0.0 to output 10.0.
4 | network_0/router_level3_1 | Buffering flit 4 at output 10.
4 | network_0/router_level3_1 | Completed crossbar traversal for flit 5 from input 1.0 to output 14.0.
4 | network_0/router_level3_1 | Buffering flit 5 at output 14.
4 | network_0/router_level3_1 | Completed crossbar traversal for flit 6 from input 3.0 to output 15.0.
4 | network_0/router_level3_1 | Buffering flit 6 at output 15.
4 | network_0/router_level3_1 | Completed crossbar traversal for flit 7 from input 4.0 to output 13.0.
4 | network_0/router_level3_1 | Buffering flit 7 at output 13.
4 | network_0/router_level3_1 | Completed crossbar traversal for flit 8 from input 5.0 to output 12.0.
4 | network_0/router_level3_1 | Buffering flit 8 at output 12.
4 | network_0/router_level3_0 | Sending flit 2 to channel at output 12.
4 | network_0/router_level3_0 | Sending flit 1 to channel at output 15.
4 | network_0/router_level3_1 | Sending flit 4 to channel at output 10.
4 | network_0/router_level3_1 | Sending flit 8 to channel at output 12.
4 | network_0/router_level3_1 | Sending flit 7 to channel at output 13.
4 | network_0/router_level3_1 | Sending flit 5 to channel at output 14.
4 | network_0/router_level3_1 | Sending flit 6 to channel at output 15.
5 | network_0/network_0_fchan_20484 | Beginning channel traversal for flit 2 with delay 1.
5 | network_0/network_0_fchan_20487 | Beginning channel traversal for flit 1 with delay 1.
5 | network_0/network_0_fchan_20490 | Beginning channel traversal for flit 4 with delay 1.
5 | network_0/network_0_fchan_20492 | Beginning channel traversal for flit 8 with delay 1.
5 | network_0/network_0_fchan_20493 | Beginning channel traversal for flit 7 with delay 1.
5 | network_0/network_0_fchan_20494 | Beginning channel traversal for flit 5 with delay 1.
5 | network_0/network_0_fchan_20495 | Beginning channel traversal for flit 6 with delay 1.
5 | network_0/router_level3_0 | Beginning switch allocation for VC 0 at input 5 (front: 3).
5 | network_0/router_level3_0 |   Requesting output 15.0 (non-spec, pri: 0).
5 | network_0/router_level3_0/sw_allocator | Input requests = [ 0 -> [ 8@0 ]  2 -> [ 14@0 ]  5 -> [ 9@0 15@0 ]  6 -> [ 11@0 ]  ], output requests = [ 8 -> [ 0@0 ]  9 -> [ 5@0 ]  11 -> [ 6@0 ]  14 -> [ 2@0 ]  15 -> [ 5@0 ]  ].
5 | network_0/router_level3_0/sw_allocator | Input grants = [ 0 -> 8  2 -> 14  5 -> 9  6 -> 11  ], output grants = [ 8 -> 0  9 -> 5  11 -> 6  14 -> 2  ].
5 | network_0/router_level3_0 | Switch allocation failed for VC 0 at input 5: Granted to VC 2.
5 | network_0/router_level3_0 | Completed switch allocation for VC 0 at input 5 (front: 3).
5 | network_0/router_level3_0 |   No output port allocated.
5 | network_0/router_level3_1 | Beginning switch allocation for VC 0 at input 7 (front: 10).
5 | network_0/router_level3_1 |   Requesting output 10.0 (non-spec, pri: 0).
5 | network_0/router_level3_1/sw_allocator | Input requests = [ 0 -> [ 11@0 ]  1 -> [ 13@0 ]  4 -> [ 9@0 ]  7 -> [ 10@0 ]  ], output requests = [ 9 -> [ 4@0 ]  10 -> [ 7@0 ]  11 -> [ 0@0 ]  13 -> [ 1@0 ]  ].
5 | network_0/router_level3_1/sw_allocator | Input grants = [ 0 -> 11  1 -> 13  4 -> 9  7 -> 10  ], output grants = [ 9 -> 4  10 -> 7  11 -> 0  13 -> 1  ].
5 | network_0/router_level3_1 | Assigning output 10.0 to VC 0 at input 7.0.
5 | network_0/router_level3_1 | Beginning crossbar traversal for flit 9 from input 6.0 to output 15.0.
5 | network_0/router_level3_1 | Completed switch allocation for VC 0 at input 7 (front: 10).
5 | network_0/router_level3_1 |   Scheduling switch connection from input 7.0 to output 10.0.
5 | network_0/router_level3_1 | Updating lookahead routing information for flit 10.
5 | network_0/router_level3_1 | Completed crossbar traversal for flit 9 from input 6.0 to output 15.0.
5 | network_0/router_level3_1 | Buffering flit 9 at output 15.
5 | network_0/network_0_fchan_20484 | Completed channel traversal for flit 2.
5 | network_0/network_0_fchan_20487 | Completed channel traversal for flit 1.
5 | network_0/network_0_fchan_20490 | Completed channel traversal for flit 4.
5 | network_0/network_0_fchan_20492 | Completed channel traversal for flit 8.
5 | network_0/network_0_fchan_20493 | Completed channel traversal for flit 7.
5 | network_0/network_0_fchan_20494 | Completed channel traversal for flit 5.
5 | network_0/network_0_fchan_20495 | Completed channel traversal for flit 6.
5 | network_0/router_level3_1 | Sending flit 9 to channel at output 15.
6 | network_0/network_0_fchan_20495 | Beginning channel traversal for flit 9 with delay 1.
6 | network_0/router_level2_2 | Received flit 4 from channel at input 1.
6 | network_0/router_level2_4 | Received flit 2 from channel at input 0.
6 | network_0/router_level2_4 | Received flit 8 from channel at input 1.
6 | network_0/router_level2_5 | Received flit 7 from channel at input 1.
6 | network_0/router_level2_6 | Received flit 5 from channel at input 1.
6 | network_0/router_level2_7 | Received flit 1 from channel at input 0.
6 | network_0/router_level2_7 | Received flit 6 from channel at input 1.
6 | network_0/router_level2_2 | Adding flit 4 to VC 0 at input 1 (state: idle, empty).
6 | network_0/router_level2_2 | Using precomputed lookahead routing information for VC 0 at input 1 (front: 4).
6 | network_0/router_level2_2/buf_1/vc_0 | Changing state from idle to vc_alloc.
6 | network_0/router_level2_2 | Beginning VC allocation for VC 0 at input 1 (front: 4).
6 | network_0/router_level2_2 |   Requesting VC 0 at output 14 (in_pri: 0, out_pri: 0).
6 | network_0/router_level2_2 |   Requesting VC 1 at output 14 (in_pri: 0, out_pri: 0).
6 | network_0/router_level2_2 |   Requesting VC 2 at output 14 (in_pri: 0, out_pri: 0).
6 | network_0/router_level2_2 |   Requesting VC 3 at output 14 (in_pri: 0, out_pri: 0).
6 | network_0/router_level2_2/vc_allocator | Input requests = [ 4 -> [ 56@0 57@0 58@0 59@0 ]  12 -> [ 56@0 57@0 58@0 59@0 ]  16 -> [ 48@0 49@0 50@0 51@0 ]  20 -> [ 32@0 33@0 34@0 35@0 ]  24 -> [ 48@0 49@0 50@0 51@0 ]  28 -> [ 60@0 61@0 62@0 63@0 ]  ], output requests = [ 32 -> [ 20@0 ]  33 -> [ 20@0 ]  34 -> [ 20@0 ]  35 -> [ 20@0 ]  48 -> [ 16@0 24@0 ]  49 -> [ 16@0 24@0 ]  50 -> [ 16@0 24@0 ]  51 -> [ 16@0 24@0 ]  56 -> [ 4@0 12@0 ]  57 -> [ 4@0 12@0 ]  58 -> [ 4@0 12@0 ]  59 -> [ 4@0 12@0 ]  60 -> [ 28@0 ]  61 -> [ 28@0 ]  62 -> [ 28@0 ]  63 -> [ 28@0 ]  ].
6 | network_0/router_level2_2/vc_allocator | Input grants = [ 4 -> 56  16 -> 48  20 -> 32  28 -> 60  ], output grants = [ 32 -> 20  48 -> 16  56 -> 4  60 -> 28  ].
6 | network_0/router_level2_2 | Assigning VC 0 at output 14 to VC 0 at input 1.
6 | network_0/router_level2_2 | Completed VC allocation for VC 0 at input 1 (front: 4).
6 | network_0/router_level2_2 |   Acquiring assigned VC 0 at output 14.
6 | network_0/router_level2_2/buf_1/vc_0 | Changing state from vc_alloc to active.
6 | network_0/router_level2_4 | Adding flit 2 to VC 0 at input 0 (state: idle, empty).
6 | network_0/router_level2_4 | Using precomputed lookahead routing information for VC 0 at input 0 (front: 2).
6 | network_0/router_level2_4/buf_0/vc_0 | Changing state from idle to vc_alloc.
6 | network_0/router_level2_4 | Adding flit 8 to VC 0 at input 1 (state: idle, empty).
6 | network_0/router_level2_4 | Using precomputed lookahead routing information for VC 0 at input 1 (front: 8).
6 | network_0/router_level2_4/buf_1/vc_0 | Changing state from idle to vc_alloc.
6 | network_0/router_level2_4 | Beginning VC allocation for VC 0 at input 0 (front: 2).
6 | network_0/router_level2_4 |   Requesting VC 0 at output 11 (in_pri: 0, out_pri: 0).
6 | network_0/router_level2_4 |   Requesting VC 1 at output 11 (in_pri: 0, out_pri: 0).
6 | network_0/router_level2_4 |   Requesting VC 2 at output 11 (in_pri: 0, out_pri: 0).
6 | network_0/router_level2_4 |   Requesting VC 3 at output 11 (in_pri: 0, out_pri: 0).
6 | network_0/router_level2_4 | Beginning VC allocation for VC 0 at input 1 (front: 8).
6 | network_0/router_level2_4 |   Requesting VC 0 at output 11 (in_pri: 0, out_pri: 0).
6 | network_0/router_level2_4 |   Requesting VC 1 at output 11 (in_pri: 0, out_pri: 0).
6 | network_0/router_level2_4 |   Requesting VC 2 at output 11 (in_pri: 0, out_pri: 0).
6 | network_0/router_level2_4 |   Requesting VC 3 at output 11 (in_pri: 0, out_pri: 0).
6 | network_0/router_level2_4/vc_allocator | Input requests = [ 0 -> [ 44@0 45@0 46@0 47@0 ]  4 -> [ 44@0 45@0 46@0 47@0 ]  20 -> [ 56@0 57@0 58@0 59@0 ]  24 -> [ 40@0 41@0 42@0 43@0 ]  ], output requests = [ 40 -> [ 24@0 ]  41 -> [ 24@0 ]  42 -> [ 24@0 ]  43 -> [ 24@0 ]  44 -> [ 0@0 4@0 ]  45 -> [ 0@0 4@0 ]  46 -> [ 0@0 4@0 ]  47 -> [ 0@0 4@0 ]  56 -> [ 20@0 ]  57 -> [ 20@0 ]  58 -> [ 20@0 ]  59 -> [ 20@0 ]  ].
6 | network_0/router_level2_4/vc_allocator | Input grants = [ 0 -> 44  20 -> 56  24 -> 40  ], output grants = [ 40 -> 24  44 -> 0  56 -> 20  ].
6 | network_0/router_level2_4 | Assigning VC 0 at output 11 to VC 0 at input 0.
6 | network_0/router_level2_4 | VC allocation failed for VC 0 at input 1.
6 | network_0/router_level2_4 | Completed VC allocation for VC 0 at input 0 (front: 2).
6 | network_0/router_level2_4 |   Acquiring assigned VC 0 at output 11.
6 | network_0/router_level2_4/buf_0/vc_0 | Changing state from vc_alloc to active.
6 | network_0/router_level2_4 | Completed VC allocation for VC 0 at input 1 (front: 8).
6 | network_0/router_level2_4 |   No output VC allocated.
6 | network_0/router_level2_5 | Adding flit 7 to VC 0 at input 1 (state: idle, empty).
6 | network_0/router_level2_5 | Using precomputed lookahead routing information for VC 0 at input 1 (front: 7).
6 | network_0/router_level2_5/buf_1/vc_0 | Changing state from idle to vc_alloc.
6 | network_0/router_level2_5 | Beginning VC allocation for VC 0 at input 1 (front: 7).
6 | network_0/router_level2_5 |   Requesting VC 0 at output 8 (in_pri: 0, out_pri: 0).
6 | network_0/router_level2_5 |   Requesting VC 1 at output 8 (in_pri: 0, out_pri: 0).
6 | network_0/router_level2_5 |   Requesting VC 2 at output 8 (in_pri: 0, out_pri: 0).
6 | network_0/router_level2_5 |   Requesting VC 3 at output 8 (in_pri: 0, out_pri: 0).
6 | network_0/router_level2_5/vc_allocator | Input requests = [ 4 -> [ 32@0 33@0 34@0 35@0 ]  8 -> [ 52@0 53@0 54@0 55@0 ]  16 -> [ 32@0 33@0 34@0 35@0 ]  24 -> [ 36@0 37@0 38@0 39@0 ]  28 -> [ 48@0 49@0 50@0 51@0 ]  ], output requests = [ 32 -> [ 4@0 16@0 ]  33 -> [ 4@0 16@0 ]  34 -> [ 4@0 16@0 ]  35 -> [ 4@0 16@0 ]  36 -> [ 24@0 ]  37 -> [ 24@0 ]  38 -> [ 24@0 ]  39 -> [ 24@0 ]  48 -> [ 28@0 ]  49 -> [ 28@0 ]  50 -> [ 28@0 ]  51 -> [ 28@0 ]  52 -> [ 8@0 ]  53 -> [ 8@0 ]  54 -> [ 8@0 ]  55 -> [ 8@0 ]  ].
6 | network_0/router_level2_5/vc_allocator | Input grants = [ 4 -> 32  8 -> 52  24 -> 36  28 -> 48  ], output grants = [ 32 -> 4  36 -> 24  48 -> 28  52 -> 8  ].
6 | network_0/router_level2_5 | Assigning VC 0 at output 8 to VC 0 at input 1.
6 | network_0/router_level2_5 | Completed VC allocation for VC 0 at input 1 (front: 7).
6 | network_0/router_level2_5 |   Acquiring assigned VC 0 at output 8.
6 | network_0/router_level2_5/buf_1/vc_0 | Changing state from vc_alloc to active.
6 | network_0/router_level2_6 | Adding flit 5 to VC 0 at input 1 (state: idle, empty).
6 | network_0/router_level2_6 | Using precomputed lookahead routing information for VC 0 at input 1 (front: 5).
6 | network_0/router_level2_6/buf_1/vc_0 | Changing state from idle to vc_alloc.
6 | network_0/router_level2_6 | Beginning VC allocation for VC 0 at input 1 (front: 5).
6 | network_0/router_level2_6 |   Requesting VC 0 at output 12 (in_pri: 0, out_pri: 0).
6 | network_0/router_level2_6 |   Requesting VC 1 at output 12 (in_pri: 0, out_pri: 0).
6 | network_0/router_level2_6 |   Requesting VC 2 at output 12 (in_pri: 0, out_pri: 0).
6 | network_0/router_level2_6 |   Requesting VC 3 at output 12 (in_pri: 0, out_pri: 0).
6 | network_0/router_level2_6/vc_allocator | Input requests = [ 4 -> [ 48@0 49@0 50@0 51@0 ]  8 -> [ 40@0 41@0 42@0 43@0 ]  24 -> [ 60@0 61@0 62@0 63@0 ]  ], output requests = [ 40 -> [ 8@0 ]  41 -> [ 8@0 ]  42 -> [ 8@0 ]  43 -> [ 8@0 ]  48 -> [ 4@0 ]  49 -> [ 4@0 ]  50 -> [ 4@0 ]  51 -> [ 4@0 ]  60 -> [ 24@0 ]  61 -> [ 24@0 ]  62 -> [ 24@0 ]  63 -> [ 24@0 ]  ].
6 | network_0/router_level2_6/vc_allocator | Input grants = [ 4 -> 48  8 -> 40  24 -> 60  ], output grants = [ 40 -> 8  48 -> 4  60 -> 24  ].
6 | network_0/router_level2_6 | Assigning VC 0 at output 12 to VC 0 at input 1.
6 | network_0/router_level2_6 | Completed VC allocation for VC 0 at input 1 (front: 5).
6 | network_0/router_level2_6 |   Acquiring assigned VC 0 at output 12.
6 | network_0/router_level2_6/buf_1/vc_0 | Changing state from vc_alloc to active.
6 | network_0/router_level2_7 | Adding flit 1 to VC 0 at input 0 (state: idle, empty).
6 | network_0/router_level2_7 | Using precomputed lookahead routing information for VC 0 at input 0 (front: 1).
6 | network_0/router_level2_7/buf_0/vc_0 | Changing state from idle to vc_alloc.
6 | network_0/router_level2_7 | Adding flit 6 to VC 0 at input 1 (state: idle, empty).
6 | network_0/router_level2_7 | Using precomputed lookahead routing information for VC 0 at input 1 (front: 6).
6 | network_0/router_level2_7/buf_1/vc_0 | Changing state from idle to vc_alloc.
6 | network_0/router_level2_7 | Beginning VC allocation for VC 0 at input 0 (front: 1).
6 | network_0/router_level2_7 |   Requesting VC 0 at output 13 (in_pri: 0, out_pri: 0).
6 | network_0/router_level2_7 |   Requesting VC 1 at output 13 (in_pri: 0, out_pri: 0).
6 | network_0/router_level2_7 |   Requesting VC 2 at output 13 (in_pri: 0, out_pri: 0).
6 | network_0/router_level2_7 |   Requesting VC 3 at output 13 (in_pri: 0, out_pri: 0).
6 | network_0/router_level2_7 | Beginning VC allocation for VC 0 at input 1 (front: 6).
6 | network_0/router_level2_7 |   Requesting VC 0 at output 12 (in_pri: 0, out_pri: 0).
6 | network_0/router_level2_7 |   Requesting VC 1 at output 12 (in_pri: 0, out_pri: 0).
6 | network_0/router_level2_7 |   Requesting VC 2 at output 12 (in_pri: 0, out_pri: 0).
6 | network_0/router_level2_7 |   Requesting VC 3 at output 12 (in_pri: 0, out_pri: 0).
6 | network_0/router_level2_7/vc_allocator | Input requests = [ 0 -> [ 52@0 53@0 54@0 55@0 ]  4 -> [ 48@0 49@0 50@0 51@0 ]  8 -> [ 40@0 41@0 42@0 43@0 ]  20 -> [ 56@0 57@0 58@0 59@0 ]  24 -> [ 56@0 57@0 58@0 59@0 ]  ], output requests = [ 40 -> [ 8@0 ]  41 -> [ 8@0 ]  42 -> [ 8@0 ]  43 -> [ 8@0 ]  48 -> [ 4@0 ]  49 -> [ 4@0 ]  50 -> [ 4@0 ]  51 -> [ 4@0 ]  52 -> [ 0@0 ]  53 -> [ 0@0 ]  54 -> [ 0@0 ]  55 -> [ 0@0 ]  56 -> [ 20@0 24@0 ]  57 -> [ 20@0 24@0 ]  58 -> [ 20@0 24@0 ]  59 -> [ 20@0 24@0 ]  ].
6 | network_0/router_level2_7/vc_allocator | Input grants = [ 0 -> 52  4 -> 48  8 -> 40  20 -> 56  ], output grants = [ 40 -> 8  48 -> 4  52 -> 0  56 -> 20  ].
6 | network_0/router_level2_7 | Assigning VC 0 at output 13 to VC 0 at input 0.
6 | network_0/router_level2_7 | Assigning VC 0 at output 12 to VC 0 at input 1.
6 | network_0/router_level2_7 | Completed VC allocation for VC 0 at input 0 (front: 1).
6 | network_0/router_level2_7 |   Acquiring assigned VC 0 at output 13.
6 | network_0/router_level2_7/buf_0/vc_0 | Changing state from vc_alloc to active.
6 | network_0/router_level2_7 | Completed VC allocation for VC 0 at input 1 (front: 6).
6 | network_0/router_level2_7 |   Acquiring assigned VC 0 at output 12.
6 | network_0/router_level2_7/buf_1/vc_0 | Changing state from vc_alloc to active.
6 | network_0/router_level3_0 | Beginning switch allocation for VC 0 at input 5 (front: 3).
6 | network_0/router_level3_0 |   Replacing earlier request from VC 1 for output 15.0 with priority 0 (non-spec, pri: 0).
6 | network_0/router_level3_0/sw_allocator | Input requests = [ 0 -> [ 10@0 ]  1 -> [ 14@0 ]  3 -> [ 8@0 12@0 ]  4 -> [ 13@0 ]  5 -> [ 9@0 15@0 ]  7 -> [ 11@0 ]  ], output requests = [ 8 -> [ 3@0 ]  9 -> [ 5@0 ]  10 -> [ 0@0 ]  11 -> [ 7@0 ]  12 -> [ 3@0 ]  13 -> [ 4@0 ]  14 -> [ 1@0 ]  15 -> [ 5@0 ]  ].
6 | network_0/router_level3_0/sw_allocator | Input grants = [ 0 -> 10  1 -> 14  3 -> 12  4 -> 13  5 -> 15  7 -> 11  ], output grants = [ 10 -> 0  11 -> 7  12 -> 3  13 -> 4  14 -> 1  15 -> 5  ].
6 | network_0/router_level3_0 | Assigning output 15.0 to VC 0 at input 5.0.
6 | network_0/router_level3_0 | Completed switch allocation for VC 0 at input 5 (front: 3).
6 | network_0/router_level3_0 |   Scheduling switch connection from input 5.0 to output 15.0.
6 | network_0/router_level3_0 | Updating lookahead routing information for flit 3.
6 | network_0/router_level3_1 | Beginning crossbar traversal for flit 10 from input 7.0 to output 10.0.
6 | network_0/router_level3_1 | Completed crossbar traversal for flit 10 from input 7.0 to output 10.0.
6 | network_0/router_level3_1 | Buffering flit 10 at output 10.
6 | network_0/network_0_fchan_20495 | Completed channel traversal for flit 9.
6 | network_0/router_level3_1 | Sending flit 10 to channel at output 10.
7 | network_0/network_0_fchan_20490 | Beginning channel traversal for flit 10 with delay 1.
7 | network_0/router_level2_7 | Received flit 9 from channel at input 1.
7 | network_0/router_level2_2 | Beginning switch allocation for VC 0 at input 1 (front: 4).
7 | network_0/router_level2_2 |   Requesting output 14.0 (non-spec, pri: 0).
7 | network_0/router_level2_2/sw_allocator | Input requests = [ 1 -> [ 14@0 ]  4 -> [ 12@0 ]  5 -> [ 8@0 ]  7 -> [ 15@0 ]  ], output requests = [ 8 -> [ 5@0 ]  12 -> [ 4@0 ]  14 -> [ 1@0 ]  15 -> [ 7@0 ]  ].
7 | network_0/router_level2_2/sw_allocator | Input grants = [ 1 -> 14  4 -> 12  5 -> 8  7 -> 15  ], output grants = [ 8 -> 5  12 -> 4  14 -> 1  15 -> 7  ].
7 | network_0/router_level2_2 | Assigning output 14.0 to VC 0 at input 1.0.
7 | network_0/router_level2_2 | Completed switch allocation for VC 0 at input 1 (front: 4).
7 | network_0/router_level2_2 |   Scheduling switch connection from input 1.0 to output 14.0.
7 | network_0/router_level2_2 | Updating lookahead routing information for flit 4.
7 | network_0/router_level2_4 | Beginning VC allocation for VC 0 at input 1 (front: 8).
7 | network_0/router_level2_4 |   VC 0 at output 11 is in use by VC 0 at input 0 (front flit: 2).
7 | network_0/router_level2_4 |   Requesting VC 1 at output 11 (in_pri: 0, out_pri: 0).
7 | network_0/router_level2_4 |   Requesting VC 2 at output 11 (in_pri: 0, out_pri: 0).
7 | network_0/router_level2_4 |   Requesting VC 3 at output 11 (in_pri: 0, out_pri: 0).
7 | network_0/router_level2_4/vc_allocator | Input requests = [ 1 -> [ 41@0 42@0 43@0 ]  4 -> [ 45@0 46@0 47@0 ]  16 -> [ 48@0 49@0 50@0 51@0 ]  25 -> [ 60@0 61@0 62@0 63@0 ]  ], output requests = [ 41 -> [ 1@0 ]  42 -> [ 1@0 ]  43 -> [ 1@0 ]  45 -> [ 4@0 ]  46 -> [ 4@0 ]  47 -> [ 4@0 ]  48 -> [ 16@0 ]  49 -> [ 16@0 ]  50 -> [ 16@0 ]  51 -> [ 16@0 ]  60 -> [ 25@0 ]  61 -> [ 25@0 ]  62 -> [ 25@0 ]  63 -> [ 25@0 ]  ].
7 | network_0/router_level2_4/vc_allocator | Input grants = [ 1 -> 41  4 -> 45  16 -> 48  25 -> 60  ], output grants = [ 41 -> 1  45 -> 4  48 -> 16  60 -> 25  ].
7 | network_0/router_level2_4 | Assigning VC 1 at output 11 to VC 0 at input 1.
7 | network_0/router_level2_4 | Beginning switch allocation for VC 0 at input 0 (front: 2).
7 | network_0/router_level2_4 |   Requesting output 11.0 (non-spec, pri: 0).
7 | network_0/router_level2_4/sw_allocator | Input requests = [ 0 -> [ 11@0 ]  5 -> [ 14@0 ]  6 -> [ 10@0 ]  ], output requests = [ 10 -> [ 6@0 ]  11 -> [ 0@0 ]  14 -> [ 5@0 ]  ].
7 | network_0/router_level2_4/sw_allocator | Input grants = [ 0 -> 11  5 -> 14  6 -> 10  ], output grants = [ 10 -> 6  11 -> 0  14 -> 5  ].
7 | network_0/router_level2_4 | Assigning output 11.0 to VC 0 at input 0.0.
7 | network_0/router_level2_4 | Completed VC allocation for VC 0 at input 1 (front: 8).
7 | network_0/router_level2_4 |   Acquiring assigned VC 1 at output 11.
7 | network_0/router_level2_4/buf_1/vc_0 | Changing state from vc_alloc to active.
7 | network_0/router_level2_4 | Completed switch allocation for VC 0 at input 0 (front: 2).
7 | network_0/router_level2_4 |   Scheduling switch connection from input 0.0 to output 11.0.
7 | network_0/router_level2_4 | Updating lookahead routing information for flit 2.
7 | network_0/router_level2_5 | Beginning switch allocation for VC 0 at input 1 (front: 7).
7 | network_0/router_level2_5 |   Requesting output 8.0 (non-spec, pri: 0).
7 | network_0/router_level2_5/sw_allocator | Input requests = [ 1 -> [ 8@0 ]  2 -> [ 13@0 ]  6 -> [ 9@0 ]  7 -> [ 12@0 ]  ], output requests = [ 8 -> [ 1@0 ]  9 -> [ 6@0 ]  12 -> [ 7@0 ]  13 -> [ 2@0 ]  ].
7 | network_0/router_level2_5/sw_allocator | Input grants = [ 1 -> 8  2 -> 13  6 -> 9  7 -> 12  ], output grants = [ 8 -> 1  9 -> 6  12 -> 7  13 -> 2  ].
7 | network_0/router_level2_5 | Assigning output 8.0 to VC 0 at input 1.0.
7 | network_0/router_level2_5 | Completed switch allocation for VC 0 at input 1 (front: 7).
7 | network_0/router_level2_5 |   Scheduling switch connection from input 1.0 to output 8.0.
7 | network_0/router_level2_5 | Updating lookahead routing information for flit 7.
7 | network_0/router_level2_6 | Beginning switch allocation for VC 0 at input 1 (front: 5).
7 | network_0/router_level2_6 |   Requesting output 12.0 (non-spec, pri: 0).
7 | network_0/router_level2_6/sw_allocator | Input requests = [ 1 -> [ 12@0 ]  2 -> [ 10@0 ]  6 -> [ 15@0 ]  ], output requests = [ 10 -> [ 2@0 ]  12 -> [ 1@0 ]  15 -> [ 6@0 ]  ].
7 | network_0/router_level2_6/sw_allocator | Input grants = [ 1 -> 12  2 -> 10  6 -> 15  ], output grants = [ 10 -> 2  12 -> 1  15 -> 6  ].
7 | network_0/router_level2_6 | Assigning output 12.0 to VC 0 at input 1.0.
7 | network_0/router_level2_6 | Completed switch allocation for VC 0 at input 1 (front: 5).
7 | network_0/router_level2_6 |   Scheduling switch connection from input 1.0 to output 12.0.
7 | network_0/router_level2_6 | Updating lookahead routing information for flit 5.
7 | network_0/router_level2_7 | Adding flit 9 to VC 1 at input 1 (state: idle, empty).
7 | network_0/router_level2_7 | Using precomputed lookahead routing information for VC 1 at input 1 (front: 9).
7 | network_0/router_level2_7/buf_1/vc_1 | Changing state from idle to vc_alloc.
7 | network_0/router_level2_7 | Beginning VC allocation for VC 1 at input 1 (front: 9).
7 | network_0/router_level2_7 |   VC 0 at output 12 is in use by VC 0 at input 1 (front flit: 6).
7 | network_0/router_level2_7 |   Requesting VC 1 at output 12 (in_pri: 0, out_pri: 0).
7 | network_0/router_level2_7 |   Requesting VC 2 at output 12 (in_pri: 0, out_pri: 0).
7 | network_0/router_level2_7 |   Requesting VC 3 at output 12 (in_pri: 0, out_pri: 0).
7 | network_0/router_level2_7/vc_allocator | Input requests = [ 1 -> [ 32@0 33@0 34@0 35@0 ]  5 -> [ 49@0 50@0 51@0 ]  12 -> [ 53@0 54@0 55@0 ]  16 -> [ 60@0 61@0 62@0 63@0 ]  24 -> [ 57@0 58@0 59@0 ]  25 -> [ 60@0 61@0 62@0 63@0 ]  28 -> [ 41@0 42@0 43@0 ]  ], output requests = [ 32 -> [ 1@0 ]  33 -> [ 1@0 ]  34 -> [ 1@0 ]  35 -> [ 1@0 ]  41 -> [ 28@0 ]  42 -> [ 28@0 ]  43 -> [ 28@0 ]  49 -> [ 5@0 ]  50 -> [ 5@0 ]  51 -> [ 5@0 ]  53 -> [ 12@0 ]  54 -> [ 12@0 ]  55 -> [ 12@0 ]  57 -> [ 24@0 ]  58 -> [ 24@0 ]  59 -> [ 24@0 ]  60 -> [ 16@0 25@0 ]  61 -> [ 16@0 25@0 ]  62 -> [ 16@0 25@0 ]  63 -> [ 16@0 25@0 ]  ].
7 | network_0/router_level2_7/vc_allocator | Input grants = [ 1 -> 32  5 -> 49  12 -> 53  16 -> 60  24 -> 57  28 -> 41  ], output grants = [ 32 -> 1  41 -> 28  49 -> 5  53 -> 12  57 -> 24  60 -> 16  ].
7 | network_0/router_level2_7 | Assigning VC 1 at output 12 to VC 1 at input 1.
7 | network_0/router_level2_7 | Beginning switch allocation for VC 0 at input 0 (front: 1).
7 | network_0/router_level2_7 |   Requesting output 13.0 (non-spec, pri: 0).
7 | network_0/router_level2_7 | Beginning switch allocation for VC 0 at input 1 (front: 6).
7 | network_0/router_level2_7 |   Requesting output 12.0 (non-spec, pri: 0).
7 | network_0/router_level2_7/sw_allocator | Input requests = [ 0 -> [ 13@0 ]  1 -> [ 12@0 ]  2 -> [ 10@0 ]  5 -> [ 14@0 ]  ], output requests = [ 10 -> [ 2@0 ]  12 -> [ 1@0 ]  13 -> [ 0@0 ]  14 -> [ 5@0 ]  ].
7 | network_0/router_level2_7/sw_allocator | Input grants = [ 0 -> 13  1 -> 12  2 -> 10  5 -> 14  ], output grants = [ 10 -> 2  12 -> 1  13 -> 0  14 -> 5  ].
7 | network_0/router_level2_7 | Assigning output 13.0 to VC 0 at input 0.0.
7 | network_0/router_level2_7 | Assigning output 12.0 to VC 0 at input 1.0.
7 | network_0/router_level2_7 | Completed VC allocation for VC 1 at input 1 (front: 9).
7 | network_0/router_level2_7 |   Acquiring assigned VC 1 at output 12.
7 | network_0/router_level2_7/buf_1/vc_1 | Changing state from vc_alloc to active.
7 | network_0/router_level2_7 | Completed switch allocation for VC 0 at input 0 (front: 1).
7 | network_0/router_level2_7 |   Scheduling switch connection from input 0.0 to output 13.0.
7 | network_0/router_level2_7 | Updating lookahead routing information for flit 1.
7 | network_0/router_level2_7 | Completed switch allocation for VC 0 at input 1 (front: 6).
7 | network_0/router_level2_7 |   Scheduling switch connection from input 1.0 to output 12.0.
7 | network_0/router_level2_7 | Updating lookahead routing information for flit 6.
7 | network_0/router_level3_0 | Beginning crossbar traversal for flit 3 from input 5.0 to output 15.0.
7 | network_0/router_level3_0 | Completed crossbar traversal for flit 3 from input 5.0 to output 15.0.
7 | network_0/router_level3_0 | Buffering flit 3 at output 15.
7 | network_0/network_0_fchan_20490 | Completed channel traversal for flit 10.
7 | network_0/router_level3_0 | Sending flit 3 to channel at output 15.
8 | network_0/network_0_fchan_20487 | Beginning channel traversal for flit 3 with delay 1.
8 | network_0/router_level2_2 | Received flit 10 from channel at input 1.
8 | network_0/router_level2_2 | Adding flit 10 to VC 0 at input 1 (state: idle, empty).
8 | network_0/router_level2_2 | Using precomputed lookahead routing information for VC 0 at input 1 (front: 10).
8 | network_0/router_level2_2/buf_1/vc_0 | Changing state from idle to vc_alloc.
8 | network_0/router_level2_2 | Beginning VC allocation for VC 0 at input 1 (front: 10).
8 | network_0/router_level2_2 |   Requesting VC 0 at output 13 (in_pri: 0, out_pri: 0).
8 | network_0/router_level2_2 |   Requesting VC 1 at output 13 (in_pri: 0, out_pri: 0).
8 | network_0/router_level2_2 |   Requesting VC 2 at output 13 (in_pri: 0, out_pri: 0).
8 | network_0/router_level2_2 |   Requesting VC 3 at output 13 (in_pri: 0, out_pri: 0).
8 | network_0/router_level2_2/vc_allocator | Input requests = [ 4 -> [ 52@0 53@0 54@0 55@0 ]  12 -> [ 56@0 58@0 59@0 ]  16 -> [ 52@0 53@0 54@0 55@0 ]  21 -> [ 45@0 46@0 47@0 ]  29 -> [ 45@0 46@0 47@0 ]  ], output requests = [ 45 -> [ 21@0 29@0 ]  46 -> [ 21@0 29@0 ]  47 -> [ 21@0 29@0 ]  52 -> [ 4@0 16@0 ]  53 -> [ 4@0 16@0 ]  54 -> [ 4@0 16@0 ]  55 -> [ 4@0 16@0 ]  56 -> [ 12@0 ]  58 -> [ 12@0 ]  59 -> [ 12@0 ]  ].
8 | network_0/router_level2_2/vc_allocator | Input grants = [ 4 -> 52  12 -> 56  21 -> 45  ], output grants = [ 45 -> 21  52 -> 4  56 -> 12  ].
8 | network_0/router_level2_2 | Assigning VC 0 at output 13 to VC 0 at input 1.
8 | network_0/router_level2_2 | Beginning crossbar traversal for flit 4 from input 1.0 to output 14.0.
8 | network_0/router_level2_2 | Completed VC allocation for VC 0 at input 1 (front: 10).
8 | network_0/router_level2_2 |   Acquiring assigned VC 0 at output 13.
8 | network_0/router_level2_2/buf_1/vc_0 | Changing state from vc_alloc to active.
8 | network_0/router_level2_2 | Completed crossbar traversal for flit 4 from input 1.0 to output 14.0.
8 | network_0/router_level2_2 | Buffering flit 4 at output 14.
8 | network_0/router_level2_4 | Beginning switch allocation for VC 0 at input 1 (front: 8).
8 | network_0/router_level2_4 |   Requesting output 11.0 (non-spec, pri: 0).
8 | network_0/router_level2_4/sw_allocator | Input requests = [ 0 -> [ 10@0 ]  1 -> [ 11@0 ]  4 -> [ 12@0 ]  6 -> [ 15@0 ]  ], output requests = [ 10 -> [ 0@0 ]  11 -> [ 1@0 ]  12 -> [ 4@0 ]  15 -> [ 6@0 ]  ].
8 | network_0/router_level2_4/sw_allocator | Input grants = [ 0 -> 10  1 -> 11  4 -> 12  6 -> 15  ], output grants = [ 10 -> 0  11 -> 1  12 -> 4  15 -> 6  ].
8 | network_0/router_level2_4 | Assigning output 11.0 to VC 0 at input 1.0.
8 | network_0/router_level2_4 | Beginning crossbar traversal for flit 2 from input 0.0 to output 11.0.
8 | network_0/router_level2_4 | Completed switch allocation for VC 0 at input 1 (front: 8).
8 | network_0/router_level2_4 |   Scheduling switch connection from input 1.0 to output 11.0.
8 | network_0/router_level2_4 | Updating lookahead routing information for flit 8.
8 | network_0/router_level2_4 | Completed crossbar traversal for flit 2 from input 0.0 to output 11.0.
8 | network_0/router_level2_4 | Buffering flit 2 at output 11.
8 | network_0/router_level2_5 | Beginning crossbar traversal for flit 7 from input 1.0 to output 8.0.
8 | network_0/router_level2_5 | Completed crossbar traversal for flit 7 from input 1.0 to output 8.0.
8 | network_0/router_level2_5 | Buffering flit 7 at output 8.
8 | network_0/router_level2_6 | Beginning crossbar traversal for flit 5 from input 1.0 to output 12.0.
8 | network_0/router_level2_6 | Completed crossbar traversal for flit 5 from input 1.0 to output 12.0.
8 | network_0/router_level2_6 | Buffering flit 5 at output 12.
8 | network_0/router_level2_7 | Beginning switch allocation for VC 1 at input 1 (front: 9).
8 | network_0/router_level2_7 |   Requesting output 12.0 (non-spec, pri: 0).
8 | network_0/router_level2_7/sw_allocator | Input requests = [ 0 -> [ 8@0 ]  1 -> [ 12@0 ]  3 -> [ 13@0 ]  4 -> [ 15@0 ]  6 -> [ 14@0 ]  7 -> [ 10@0 ]  ], output requests = [ 8 -> [ 0@0 ]  10 -> [ 7@0 ]  12 -> [ 1@0 ]  13 -> [ 3@0 ]  14 -> [ 6@0 ]  15 -> [ 4@0 ]  ].
8 | network_0/router_level2_7/sw_allocator | Input grants = [ 0 -> 8  1 -> 12  3 -> 13  4 -> 15  6 -> 14  7 -> 10  ], output grants = [ 8 -> 0  10 -> 7  12 -> 1  13 -> 3  14 -> 6  15 -> 4  ].
8 | network_0/router_level2_7 | Assigning output 12.0 to VC 1 at input 1.0.
8 | network_0/router_level2_7 | Beginning crossbar traversal for flit 1 from input 0.0 to output 13.0.
8 | network_0/router_level2_7 | Beginning crossbar traversal for flit 6 from input 1.0 to output 12.0.
8 | network_0/router_level2_7 | Completed switch allocation for VC 1 at input 1 (front: 9).
8 | network_0/router_level2_7 |   Scheduling switch connection from input 1.0 to output 12.0.
8 | network_0/router_level2_7 | Updating lookahead routing information for flit 9.
8 | network_0/router_level2_7 | Completed crossbar traversal for flit 1 from input 0.0 to output 13.0.
8 | network_0/router_level2_7 | Buffering flit 1 at output 13.
8 | network_0/router_level2_7 | Completed crossbar traversal for flit 6 from input 1.0 to output 12.0.
8 | network_0/router_level2_7 | Buffering flit 6 at output 12.
8 | network_0/network_0_fchan_20487 | Completed channel traversal for flit 3.
8 | network_0/router_level2_2 | Sending flit 4 to channel at output 14.
8 | network_0/router_level2_4 | Sending flit 2 to channel at output 11.
8 | network_0/router_level2_5 | Sending flit 7 to channel at output 8.
8 | network_0/router_level2_6 | Sending flit 5 to channel at output 12.
8 | network_0/router_level2_7 | Sending flit 6 to channel at output 12.
8 | network_0/router_level2_7 | Sending flit 1 to channel at output 13.
9 | network_0/network_0_fchan_12310 | Beginning channel traversal for flit 4 with delay 1.
9 | network_0/network_0_fchan_12323 | Beginning channel traversal for flit 2 with delay 1.
9 | network_0/network_0_fchan_12328 | Beginning channel traversal for flit 7 with delay 1.
9 | network_0/network_0_fchan_12340 | Beginning channel traversal for flit 5 with delay 1.
9 | network_0/network_0_fchan_12348 | Beginning channel traversal for flit 6 with delay 1.
9 | network_0/network_0_fchan_12349 | Beginning channel traversal for flit 1 with delay 1.
9 | network_0/router_level2_7 | Received flit 3 from channel at input 0.
9 | network_0/router_level2_2 | Beginning switch allocation for VC 0 at input 1 (front: 10).
9 | network_0/router_level2_2 |   Requesting output 13.0 (non-spec, pri: 0).
9 | network_0/router_level2_2/sw_allocator | Input requests = [ 1 -> [ 13@0 ]  3 -> [ 14@0 ]  5 -> [ 11@0 ]  ], output requests = [ 11 -> [ 5@0 ]  13 -> [ 1@0 ]  14 -> [ 3@0 ]  ].
9 | network_0/router_level2_2/sw_allocator | Input grants = [ 1 -> 13  3 -> 14  5 -> 11  ], output grants = [ 11 -> 5  13 -> 1  14 -> 3  ].
9 | network_0/router_level2_2 | Assigning output 13.0 to VC 0 at input 1.0.
9 | network_0/router_level2_2 | Completed switch allocation for VC 0 at input 1 (front: 10).
9 | network_0/router_level2_2 |   Scheduling switch connection from input 1.0 to output 13.0.
9 | network_0/router_level2_2 | Updating lookahead routing information for flit 10.
9 | network_0/router_level2_4 | Beginning crossbar traversal for flit 8 from input 1.0 to output 11.0.
9 | network_0/router_level2_4 | Completed crossbar traversal for flit 8 from input 1.0 to output 11.0.
9 | network_0/router_level2_4 | Buffering flit 8 at output 11.
9 | network_0/router_level2_7 | Adding flit 3 to VC 0 at input 0 (state: idle, empty).
9 | network_0/router_level2_7 | Using precomputed lookahead routing information for VC 0 at input 0 (front: 3).
9 | network_0/router_level2_7/buf_0/vc_0 | Changing state from idle to vc_alloc.
9 | network_0/router_level2_7 | Beginning VC allocation for VC 0 at input 0 (front: 3).
9 | network_0/router_level2_7 |   Requesting VC 0 at output 14 (in_pri: 0, out_pri: 0).
9 | network_0/router_level2_7 |   Requesting VC 1 at output 14 (in_pri: 0, out_pri: 0).
9 | network_0/router_level2_7 |   Requesting VC 2 at output 14 (in_pri: 0, out_pri: 0).
9 | network_0/router_level2_7 |   Requesting VC 3 at output 14 (in_pri: 0, out_pri: 0).
9 | network_0/router_level2_7/vc_allocator | Input requests = [ 0 -> [ 56@0 57@0 58@0 59@0 ]  4 -> [ 48@0 49@0 50@0 51@0 ]  12 -> [ 40@0 41@0 42@0 43@0 ]  16 -> [ 36@0 37@0 38@0 39@0 ]  22 -> [ 48@0 49@0 50@0 51@0 ]  24 -> [ 36@0 37@0 38@0 39@0 ]  25 -> [ 60@0 62@0 63@0 ]  ], output requests = [ 36 -> [ 16@0 24@0 ]  37 -> [ 16@0 24@0 ]  38 -> [ 16@0 24@0 ]  39 -> [ 16@0 24@0 ]  40 -> [ 12@0 ]  41 -> [ 12@0 ]  42 -> [ 12@0 ]  43 -> [ 12@0 ]  48 -> [ 4@0 22@0 ]  49 -> [ 4@0 22@0 ]  50 -> [ 4@0 22@0 ]  51 -> [ 4@0 22@0 ]  56 -> [ 0@0 ]  57 -> [ 0@0 ]  58 -> [ 0@0 ]  59 -> [ 0@0 ]  60 -> [ 25@0 ]  62 -> [ 25@0 ]  63 -> [ 25@0 ]  ].
9 | network_0/router_level2_7/vc_allocator | Input grants = [ 0 -> 56  4 -> 49  12 -> 40  16 -> 36  22 -> 48  25 -> 60  ], output grants = [ 36 -> 16  40 -> 12  48 -> 22  49 -> 4  56 -> 0  60 -> 25  ].
9 | network_0/router_level2_7 | Assigning VC 0 at output 14 to VC 0 at input 0.
9 | network_0/router_level2_7 | Beginning crossbar traversal for flit 9 from input 1.0 to output 12.0.
9 | network_0/router_level2_7 | Completed VC allocation for VC 0 at input 0 (front: 3).
9 | network_0/router_level2_7 |   Acquiring assigned VC 0 at output 14.
9 | network_0/router_level2_7/buf_0/vc_0 | Changing state from vc_alloc to active.
9 | network_0/router_level2_7 | Completed crossbar traversal for flit 9 from input 1.0 to output 12.0.
9 | network_0/router_level2_7 | Buffering flit 9 at output 12.
9 | network_0/network_0_fchan_12310 | Completed channel traversal for flit 4.
9 | network_0/network_0_fchan_12323 | Completed channel traversal for flit 2.
9 | network_0/network_0_fchan_12328 | Completed channel traversal for flit 7.
9 | network_0/network_0_fchan_12340 | Completed channel traversal for flit 5.
9 | network_0/network_0_fchan_12348 | Completed channel traversal for flit 6.
9 | network_0/network_0_fchan_12349 | Completed channel traversal for flit 1.
9 | network_0/router_level2_4 | Sending flit 8 to channel at output 11.
9 | network_0/router_level2_7 | Sending flit 9 to channel at output 12.
10 | network_0/network_0_fchan_12323 | Beginning channel traversal for flit 8 with delay 1.
10 | network_0/network_0_fchan_12348 | Beginning channel traversal for flit 9 with delay 1.
10 | network_0/router_level1_5 | Received flit 7 from channel at input 0.
10 | network_0/router_level1_28 | Received flit 2 from channel at input 0.
10 | network_0/router_level1_38 | Received flit 5 from channel at input 0.
10 | network_0/router_level1_39 | Received flit 6 from channel at input 0.
10 | network_0/router_level1_47 | Received flit 1 from channel at input 0.
10 | network_0/router_level1_50 | Received flit 4 from channel at input 0.
10 | network_0/router_level1_5 | Adding flit 7 to VC 0 at input 0 (state: idle, empty).
10 | network_0/router_level1_5 | Using precomputed lookahead routing information for VC 0 at input 0 (front: 7).
10 | network_0/router_level1_5/buf_0/vc_0 | Changing state from idle to vc_alloc.
10 | network_0/router_level1_5 | Beginning VC allocation for VC 0 at input 0 (front: 7).
10 | network_0/router_level1_5 |   Requesting VC 0 at output 14 (in_pri: 0, out_pri: 0).
10 | network_0/router_level1_5 |   Requesting VC 1 at output 14 (in_pri: 0, out_pri: 0).
10 | network_0/router_level1_5 |   Requesting VC 2 at output 14 (in_pri: 0, out_pri: 0).
10 | network_0/router_level1_5 |   Requesting VC 3 at output 14 (in_pri: 0, out_pri: 0).
10 | network_0/router_level1_5/vc_allocator | Input requests = [ 0 -> [ 56@0 57@0 58@0 59@0 ]  24 -> [ 48@0 49@0 50@0 51@0 ]  28 -> [ 56@0 57@0 58@0 59@0 ]  ], output requests = [ 48 -> [ 24@0 ]  49 -> [ 24@0 ]  50 -> [ 24@0 ]  51 -> [ 24@0 ]  56 -> [ 0@0 28@0 ]  57 -> [ 0@0 28@0 ]  58 -> [ 0@0 28@0 ]  59 -> [ 0@0 28@0 ]  ].
10 | network_0/router_level1_5/vc_allocator | Input grants = [ 0 -> 56  24 -> 48  ], output grants = [ 48 -> 24  56 -> 0  ].
10 | network_0/router_level1_5 | Assigning VC 0 at output 14 to VC 0 at input 0.
10 | network_0/router_level1_5 | Completed VC allocation for VC 0 at input 0 (front: 7).
10 | network_0/router_level1_5 |   Acquiring assigned VC 0 at output 14.
10 | network_0/router_level1_5/buf_0/vc_0 | Changing state from vc_alloc to active.
10 | network_0/router_level1_28 | Adding flit 2 to VC 0 at input 0 (state: idle, empty).
10 | network_0/router_level1_28 | Using precomputed lookahead routing information for VC 0 at input 0 (front: 2).
10 | network_0/router_level1_28/buf_0/vc_0 | Changing state from idle to vc_alloc.
10 | network_0/router_level1_28 | Beginning VC allocation for VC 0 at input 0 (front: 2).
10 | network_0/router_level1_28 |   Requesting VC 0 at output 8 (in_pri: 0, out_pri: 0).
10 | network_0/router_level1_28 |   Requesting VC 1 at output 8 (in_pri: 0, out_pri: 0).
10 | network_0/router_level1_28 |   Requesting VC 2 at output 8 (in_pri: 0, out_pri: 0).
10 | network_0/router_level1_28 |   Requesting VC 3 at output 8 (in_pri: 0, out_pri: 0).
10 | network_0/router_level1_28/vc_allocator | Input requests = [ 0 -> [ 32@0 33@0 34@0 35@0 ]  12 -> [ 32@0 33@0 34@0 35@0 ]  16 -> [ 36@0 37@0 38@0 39@0 ]  20 -> [ 24@0 25@0 26@0 27@0 ]  24 -> [ 8@0 9@0 10@0 11@0 ]  ], output requests = [ 8 -> [ 24@0 ]  9 -> [ 24@0 ]  10 -> [ 24@0 ]  11 -> [ 24@0 ]  24 -> [ 20@0 ]  25 -> [ 20@0 ]  26 -> [ 20@0 ]  27 -> [ 20@0 ]  32 -> [ 0@0 12@0 ]  33 -> [ 0@0 12@0 ]  34 -> [ 0@0 12@0 ]  35 -> [ 0@0 12@0 ]  36 -> [ 16@0 ]  37 -> [ 16@0 ]  38 -> [ 16@0 ]  39 -> [ 16@0 ]  ].
10 | network_0/router_level1_28/vc_allocator | Input grants = [ 0 -> 32  16 -> 36  20 -> 24  24 -> 8  ], output grants = [ 8 -> 24  24 -> 20  32 -> 0  36 -> 16  ].
10 | network_0/router_level1_28 | Assigning VC 0 at output 8 to VC 0 at input 0.
10 | network_0/router_level1_28 | Completed VC allocation for VC 0 at input 0 (front: 2).
10 | network_0/router_level1_28 |   Acquiring assigned VC 0 at output 8.
10 | network_0/router_level1_28/buf_0/vc_0 | Changing state from vc_alloc to active.
10 | network_0/router_level1_38 | Adding flit 5 to VC 0 at input 0 (state: idle, empty).
10 | network_0/router_level1_38 | Using precomputed lookahead routing information for VC 0 at input 0 (front: 5).
10 | network_0/router_level1_38/buf_0/vc_0 | Changing state from idle to vc_alloc.
10 | network_0/router_level1_38 | Beginning VC allocation for VC 0 at input 0 (front: 5).
10 | network_0/router_level1_38 |   Requesting VC 0 at output 10 (in_pri: 0, out_pri: 0).
10 | network_0/router_level1_38 |   Requesting VC 1 at output 10 (in_pri: 0, out_pri: 0).
10 | network_0/router_level1_38 |   Requesting VC 2 at output 10 (in_pri: 0, out_pri: 0).
10 | network_0/router_level1_38 |   Requesting VC 3 at output 10 (in_pri: 0, out_pri: 0).
10 | network_0/router_level1_38/vc_allocator | Input requests = [ 0 -> [ 40@0 41@0 42@0 43@0 ]  8 -> [ 16@0 17@0 18@0 19@0 ]  16 -> [ 56@0 57@0 58@0 59@0 ]  28 -> [ 60@0 61@0 62@0 63@0 ]  ], output requests = [ 16 -> [ 8@0 ]  17 -> [ 8@0 ]  18 -> [ 8@0 ]  19 -> [ 8@0 ]  40 -> [ 0@0 ]  41 -> [ 0@0 ]  42 -> [ 0@0 ]  43 -> [ 0@0 ]  56 -> [ 16@0 ]  57 -> [ 16@0 ]  58 -> [ 16@0 ]  59 -> [ 16@0 ]  60 -> [ 28@0 ]  61 -> [ 28@0 ]  62 -> [ 28@0 ]  63 -> [ 28@0 ]  ].
10 | network_0/router_level1_38/vc_allocator | Input grants = [ 0 -> 40  8 -> 16  16 -> 56  28 -> 60  ], output grants = [ 16 -> 8  40 -> 0  56 -> 16  60 -> 28  ].
10 | network_0/router_level1_38 | Assigning VC 0 at output 10 to VC 0 at input 0.
10 | network_0/router_level1_38 | Completed VC allocation for VC 0 at input 0 (front: 5).
10 | network_0/router_level1_38 |   Acquiring assigned VC 0 at output 10.
10 | network_0/router_level1_38/buf_0/vc_0 | Changing state from vc_alloc to active.
10 | network_0/router_level1_39 | Adding flit 6 to VC 0 at input 0 (state: idle, empty).
10 | network_0/router_level1_39 | Using precomputed lookahead routing information for VC 0 at input 0 (front: 6).
10 | network_0/router_level1_39/buf_0/vc_0 | Changing state from idle to vc_alloc.
10 | network_0/router_level1_39 | Beginning VC allocation for VC 0 at input 0 (front: 6).
10 | network_0/router_level1_39 |   Requesting VC 0 at output 15 (in_pri: 0, out_pri: 0).
10 | network_0/router_level1_39 |   Requesting VC 1 at output 15 (in_pri: 0, out_pri: 0).
10 | network_0/router_level1_39 |   Requesting VC 2 at output 15 (in_pri: 0, out_pri: 0).
10 | network_0/router_level1_39 |   Requesting VC 3 at output 15 (in_pri: 0, out_pri: 0).
10 | network_0/router_level1_39/vc_allocator | Input requests = [ 0 -> [ 60@0 61@0 62@0 63@0 ]  16 -> [ 36@0 37@0 38@0 39@0 ]  20 -> [ 56@0 57@0 58@0 59@0 ]  24 -> [ 52@0 53@0 54@0 55@0 ]  ], output requests = [ 36 -> [ 16@0 ]  37 -> [ 16@0 ]  38 -> [ 16@0 ]  39 -> [ 16@0 ]  52 -> [ 24@0 ]  53 -> [ 24@0 ]  54 -> [ 24@0 ]  55 -> [ 24@0 ]  56 -> [ 20@0 ]  57 -> [ 20@0 ]  58 -> [ 20@0 ]  59 -> [ 20@0 ]  60 -> [ 0@0 ]  61 -> [ 0@0 ]  62 -> [ 0@0 ]  63 -> [ 0@0 ]  ].
10 | network_0/router_level1_39/vc_allocator | Input grants = [ 0 -> 60  16 -> 36  20 -> 56  24 -> 52  ], output grants = [ 36 -> 16  52 -> 24  56 -> 20  60 -> 0  ].
10 | network_0/router_level1_39 | Assigning VC 0 at output 15 to VC 0 at input 0.
10 | network_0/router_level1_39 | Completed VC allocation for VC 0 at input 0 (front: 6).
10 | network_0/router_level1_39 |   Acquiring assigned VC 0 at output 15.
10 | network_0/router_level1_39/buf_0/vc_0 | Changing state from vc_alloc to active.
10 | network_0/router_level1_47 | Adding flit 1 to VC 0 at input 0 (state: idle, empty).
10 | network_0/router_level1_47 | Using precomputed lookahead routing information for VC 0 at input 0 (front: 1).
10 | network_0/router_level1_47/buf_0/vc_0 | Changing state from idle to vc_alloc.
10 | network_0/router_level1_47 | Beginning VC allocation for VC 0 at input 0 (front: 1).
10 | network_0/router_level1_47 |   Requesting VC 0 at output 13 (in_pri: 0, out_pri: 0).
10 | network_0/router_level1_47 |   Requesting VC 1 at output 13 (in_pri: 0, out_pri: 0).
10 | network_0/router_level1_47 |   Requesting VC 2 at output 13 (in_pri: 0, out_pri: 0).
10 | network_0/router_level1_47 |   Requesting VC 3 at output 13 (in_pri: 0, out_pri: 0).
10 | network_0/router_level1_47/vc_allocator | Input requests = [ 0 -> [ 52@0 53@0 54@0 55@0 ]  8 -> [ 36@0 37@0 38@0 39@0 ]  12 -> [ 24@0 25@0 26@0 27@0 ]  ], output requests = [ 24 -> [ 12@0 ]  25 -> [ 12@0 ]  26 -> [ 12@0 ]  27 -> [ 12@0 ]  36 -> [ 8@0 ]  37 -> [ 8@0 ]  38 -> [ 8@0 ]  39 -> [ 8@0 ]  52 -> [ 0@0 ]  53 -> [ 0@0 ]  54 -> [ 0@0 ]  55 -> [ 0@0 ]  ].
10 | network_0/router_level1_47/vc_allocator | Input grants = [ 0 -> 52  8 -> 36  12 -> 24  ], output grants = [ 24 -> 12  36 -> 8  52 -> 0  ].
10 | network_0/router_level1_47 | Assigning VC 0 at output 13 to VC 0 at input 0.
10 | network_0/router_level1_47 | Completed VC allocation for VC 0 at input 0 (front: 1).
10 | network_0/router_level1_47 |   Acquiring assigned VC 0 at output 13.
10 | network_0/router_level1_47/buf_0/vc_0 | Changing state from vc_alloc to active.
10 | network_0/router_level1_50 | Adding flit 4 to VC 0 at input 0 (state: idle, empty).
10 | network_0/router_level1_50 | Using precomputed lookahead routing information for VC 0 at input 0 (front: 4).
10 | network_0/router_level1_50/buf_0/vc_0 | Changing state from idle to vc_alloc.
10 | network_0/router_level1_50 | Beginning VC allocation for VC 0 at input 0 (front: 4).
10 | network_0/router_level1_50 |   Requesting VC 0 at output 14 (in_pri: 0, out_pri: 0).
10 | network_0/router_level1_50 |   Requesting VC 1 at output 14 (in_pri: 0, out_pri: 0).
10 | network_0/router_level1_50 |   Requesting VC 2 at output 14 (in_pri: 0, out_pri: 0).
10 | network_0/router_level1_50 |   Requesting VC 3 at output 14 (in_pri: 0, out_pri: 0).
10 | network_0/router_level1_50/vc_allocator | Input requests = [ 0 -> [ 56@0 57@0 58@0 59@0 ]  4 -> [ 52@0 53@0 54@0 55@0 ]  20 -> [ 44@0 45@0 46@0 47@0 ]  ], output requests = [ 44 -> [ 20@0 ]  45 -> [ 20@0 ]  46 -> [ 20@0 ]  47 -> [ 20@0 ]  52 -> [ 4@0 ]  53 -> [ 4@0 ]  54 -> [ 4@0 ]  55 -> [ 4@0 ]  56 -> [ 0@0 ]  57 -> [ 0@0 ]  58 -> [ 0@0 ]  59 -> [ 0@0 ]  ].
10 | network_0/router_level1_50/vc_allocator | Input grants = [ 0 -> 56  4 -> 52  20 -> 44  ], output grants = [ 44 -> 20  52 -> 4  56 -> 0  ].
10 | network_0/router_level1_50 | Assigning VC 0 at output 14 to VC 0 at input 0.
10 | network_0/router_level1_50 | Completed VC allocation for VC 0 at input 0 (front: 4).
10 | network_0/router_level1_50 |   Acquiring assigned VC 0 at output 14.
10 | network_0/router_level1_50/buf_0/vc_0 | Changing state from vc_alloc to active.
10 | network_0/router_level2_2 | Beginning crossbar traversal for flit 10 from input 1.0 to output 13.0.
10 | network_0/router_level2_2 | Completed crossbar traversal for flit 10 from input 1.0 to output 13.0.
10 | network_0/router_level2_2 | Buffering flit 10 at output 13.
10 | network_0/router_level2_7 | Beginning switch allocation for VC 0 at input 0 (front: 3).
10 | network_0/router_level2_7 |   Requesting output 14.0 (non-spec, pri: 0).
10 | network_0/router_level2_7/sw_allocator | Input requests = [ 0 -> [ 14@0 ]  1 -> [ 12@0 ]  3 -> [ 10@0 ]  4 -> [ 9@0 ]  5 -> [ 12@0 ]  6 -> [ 15@0 ]  ], output requests = [ 9 -> [ 4@0 ]  10 -> [ 3@0 ]  12 -> [ 1@0 5@0 ]  14 -> [ 0@0 ]  15 -> [ 6@0 ]  ].
10 | network_0/router_level2_7/sw_allocator | Input grants = [ 0 -> 14  3 -> 10  4 -> 9  5 -> 12  6 -> 15  ], output grants = [ 9 -> 4  10 -> 3  12 -> 5  14 -> 0  15 -> 6  ].
10 | network_0/router_level2_7 | Assigning output 14.0 to VC 0 at input 0.0.
10 | network_0/router_level2_7 | Completed switch allocation for VC 0 at input 0 (front: 3).
10 | network_0/router_level2_7 |   Scheduling switch connection from input 0.0 to output 14.0.
10 | network_0/router_level2_7 | Updating lookahead routing information for flit 3.
10 | network_0/network_0_fchan_12323 | Completed channel traversal for flit 8.
10 | network_0/network_0_fchan_12348 | Completed channel traversal for flit 9.
10 | network_0/router_level2_2 | Sending flit 10 to channel at output 13.
[...]
29 | network_0/router_level3_151/vc_allocator | Input grants = [ 4 -> 45  8 -> 43  16 -> 56  25 -> 37  29 -> 60  60 -> 4  ], output grants = [ 4 -> 60  37 -> 25  43 -> 8  45 -> 4  56 -> 16  60 -> 29  ].
29 | network_0/router_level3_151 | Assigning VC 0 at output 1 to VC 0 at input 15.
29 | network_0/router_level3_151 | Completed VC allocation for VC 0 at input 15 (front: 3).
29 | network_0/router_level3_151 |   Acquiring assigned VC 0 at output 1.
29 | network_0/router_level3_151/buf_15/vc_0 | Changing state from vc_alloc to active.
29 | network_0/router_level3_171 | Beginning switch allocation for VC 0 at input 15 (front: 6).
29 | network_0/router_level3_171 |   Requesting output 2.0 (non-spec, pri: 0).
29 | network_0/router_level3_171/sw_allocator | Input requests = [ 0 -> [ 15@0 ]  1 -> [ 10@0 13@0 14@0 ]  2 -> [ 10@0 14@0 ]  3 -> [ 8@0 ]  4 -> [ 11@0 13@0 ]  5 -> [ 10@0 11@0 12@0 ]  6 -> [ 15@0 ]  7 -> [ 13@0 ]  10 -> [ 6@0 ]  11 -> [ 3@0 ]  15 -> [ 2@0 ]  ], output requests = [ 2 -> [ 15@0 ]  3 -> [ 11@0 ]  6 -> [ 10@0 ]  8 -> [ 3@0 ]  10 -> [ 1@0 2@0 5@0 ]  11 -> [ 4@0 5@0 ]  12 -> [ 5@0 ]  13 -> [ 1@0 4@0 7@0 ]  14 -> [ 1@0 2@0 ]  15 -> [ 0@0 6@0 ]  ].
29 | network_0/router_level3_171/sw_allocator | Input grants = [ 1 -> 10  3 -> 8  6 -> 15  7 -> 13  10 -> 6  11 -> 3  15 -> 2  ], output grants = [ 2 -> 15  3 -> 11  6 -> 10  8 -> 3  10 -> 1  13 -> 7  15 -> 6  ].
29 | network_0/router_level3_171 | Assigning output 2.0 to VC 0 at input 15.0.
29 | network_0/router_level3_171 | Completed switch allocation for VC 0 at input 15 (front: 6).
29 | network_0/router_level3_171 |   Scheduling switch connection from input 15.0 to output 2.0.
29 | network_0/router_level3_222 | Beginning switch allocation for VC 1 at input 12 (front: 2).
29 | network_0/router_level3_222 |   Requesting output 3.0 (non-spec, pri: 0).
29 | network_0/router_level3_222/sw_allocator | Input requests = [ 0 -> [ 13@0 ]  1 -> [ 12@0 ]  2 -> [ 10@0 11@0 12@0 ]  3 -> [ 8@0 13@0 ]  4 -> [ 9@0 14@0 ]  5 -> [ 12@0 15@0 ]  7 -> [ 10@0 14@0 ]  10 -> [ 6@0 ]  12 -> [ 3@0 ]  14 -> [ 1@0 ]  ], output requests = [ 1 -> [ 14@0 ]  3 -> [ 12@0 ]  6 -> [ 10@0 ]  8 -> [ 3@0 ]  9 -> [ 4@0 ]  10 -> [ 2@0 7@0 ]  11 -> [ 2@0 ]  12 -> [ 1@0 2@0 5@0 ]  13 -> [ 0@0 3@0 ]  14 -> [ 4@0 7@0 ]  15 -> [ 5@0 ]  ].
29 | network_0/router_level3_222/sw_allocator | Input grants = [ 0 -> 13  1 -> 12  2 -> 10  4 -> 9  7 -> 14  10 -> 6  12 -> 3  14 -> 1  ], output grants = [ 1 -> 14  3 -> 12  6 -> 10  9 -> 4  10 -> 2  12 -> 1  13 -> 0  14 -> 7  ].
29 | network_0/router_level3_222 | Assigning output 3.0 to VC 1 at input 12.0.
29 | network_0/router_level3_222 | Completed switch allocation for VC 1 at input 12 (front: 2).
29 | network_0/router_level3_222 |   Scheduling switch connection from input 12.0 to output 3.0.
29 | network_0/router_level3_224 | Beginning crossbar traversal for flit 8 from input 12.0 to output 3.0.
29 | network_0/router_level3_224 | Completed crossbar traversal for flit 8 from input 12.0 to output 3.0.
29 | network_0/router_level3_224 | Buffering flit 8 at output 3.
29 | network_0/router_level3_247 | Beginning switch allocation for VC 1 at input 15 (front: 1).
29 | network_0/router_level3_247 |   Requesting output 2.0 (non-spec, pri: 0).
29 | network_0/router_level3_247/sw_allocator | Input requests = [ 0 -> [ 11@0 12@0 ]  2 -> [ 15@0 ]  3 -> [ 14@0 ]  5 -> [ 13@0 ]  6 -> [ 9@0 15@0 ]  7 -> [ 14@0 ]  13 -> [ 3@0 ]  14 -> [ 0@0 7@0 ]  15 -> [ 2@0 ]  ], output requests = [ 0 -> [ 14@0 ]  2 -> [ 15@0 ]  3 -> [ 13@0 ]  7 -> [ 14@0 ]  9 -> [ 6@0 ]  11 -> [ 0@0 ]  12 -> [ 0@0 ]  13 -> [ 5@0 ]  14 -> [ 3@0 7@0 ]  15 -> [ 2@0 6@0 ]  ].
29 | network_0/router_level3_247/sw_allocator | Input grants = [ 0 -> 11  2 -> 15  5 -> 13  7 -> 14  13 -> 3  14 -> 7  15 -> 2  ], output grants = [ 2 -> 15  3 -> 13  7 -> 14  11 -> 0  13 -> 5  14 -> 7  15 -> 2  ].
29 | network_0/router_level3_247 | Assigning output 2.0 to VC 1 at input 15.0.
29 | network_0/router_level3_247 | Completed switch allocation for VC 1 at input 15 (front: 1).
29 | network_0/router_level3_247 |   Scheduling switch connection from input 15.0 to output 2.0.
29 | network_0/network_0_fchan_egress1810 | Completed channel traversal for flit 7.
29 | network_0/network_0_fchan_egress2440 | Completed channel traversal for flit 4.
29 | network_0/network_0_fchan_egress3886 | Completed channel traversal for flit 5.
29 | network_0/router_level3_224 | Sending flit 8 to channel at output 3.
30 | node1810 | Ejecting flit 7 (packet 7) from VC 0.
30 | node2440 | Ejecting flit 4 (packet 4) from VC 0.
30 | node3886 | Ejecting flit 5 (packet 5) from VC 0.
30 | network_0/network_0_fchan_egress1795 | Beginning channel traversal for flit 8 with delay 1.
30 | node1810 | Injecting credit for VC 0 into subnet 0.
30 | node1810 | Retiring flit 7 (packet 7, src = 12, dest = 1810, hops = 7, flat = 30).
30 | node1810 | Retiring packet 7 (plat = 30, nlat = 30, frag = 0, src = 12, dest = 1810).
30 | node2440 | Injecting credit for VC 0 into subnet 0.
30 | node2440 | Retiring flit 4 (packet 4, src = 8, dest = 2440, hops = 7, flat = 30).
30 | node2440 | Retiring packet 4 (plat = 30, nlat = 30, frag = 0, src = 8, dest = 2440).
30 | node3886 | Injecting credit for VC 0 into subnet 0.
30 | node3886 | Retiring flit 5 (packet 5, src = 9, dest = 3886, hops = 7, flat = 30).
30 | node3886 | Retiring packet 5 (plat = 30, nlat = 30, frag = 0, src = 9, dest = 3886).
30 | network_0/router_level3_129 | Beginning crossbar traversal for flit 10 from input 10.0 to output 6.0.
30 | network_0/router_level3_129 | Completed crossbar traversal for flit 10 from input 10.0 to output 6.0.
30 | network_0/router_level3_129 | Buffering flit 10 at output 6.
30 | network_0/router_level3_151 | Beginning switch allocation for VC 0 at input 15 (front: 3).
30 | network_0/router_level3_151 |   Requesting output 1.0 (non-spec, pri: 0).
30 | network_0/router_level3_151/sw_allocator | Input requests = [ 0 -> [ 14@0 ]  1 -> [ 11@0 ]  2 -> [ 10@0 12@0 ]  3 -> [ 9@0 ]  4 -> [ 14@0 ]  5 -> [ 9@0 10@0 ]  6 -> [ 9@0 13@0 ]  7 -> [ 15@0 ]  15 -> [ 1@0 ]  ], output requests = [ 1 -> [ 15@0 ]  9 -> [ 3@0 5@0 6@0 ]  10 -> [ 2@0 5@0 ]  11 -> [ 1@0 ]  12 -> [ 2@0 ]  13 -> [ 6@0 ]  14 -> [ 0@0 4@0 ]  15 -> [ 7@0 ]  ].
30 | network_0/router_level3_151/sw_allocator | Input grants = [ 1 -> 11  2 -> 10  3 -> 9  4 -> 14  7 -> 15  15 -> 1  ], output grants = [ 1 -> 15  9 -> 3  10 -> 2  11 -> 1  14 -> 4  15 -> 7  ].
30 | network_0/router_level3_151 | Assigning output 1.0 to VC 0 at input 15.0.
30 | network_0/router_level3_151 | Completed switch allocation for VC 0 at input 15 (front: 3).
30 | network_0/router_level3_151 |   Scheduling switch connection from input 15.0 to output 1.0.
30 | network_0/router_level3_171 | Beginning crossbar traversal for flit 6 from input 15.0 to output 2.0.
30 | network_0/router_level3_171 | Completed crossbar traversal for flit 6 from input 15.0 to output 2.0.
30 | network_0/router_level3_171 | Buffering flit 6 at output 2.
30 | network_0/router_level3_222 | Beginning crossbar traversal for flit 2 from input 12.0 to output 3.0.
30 | network_0/router_level3_222 | Completed crossbar traversal for flit 2 from input 12.0 to output 3.0.
30 | network_0/router_level3_222 | Buffering flit 2 at output 3.
30 | network_0/router_level3_247 | Beginning crossbar traversal for flit 1 from input 15.0 to output 2.0.
30 | network_0/router_level3_247 | Completed crossbar traversal for flit 1 from input 15.0 to output 2.0.
30 | network_0/router_level3_247 | Buffering flit 1 at output 2.
30 | network_0/network_0_fchan_egress1795 | Completed channel traversal for flit 8.
30 | network_0/router_level3_129 | Sending flit 10 to channel at output 6.
30 | network_0/router_level3_171 | Sending flit 6 to channel at output 2.
30 | network_0/router_level3_222 | Sending flit 2 to channel at output 3.
30 | network_0/router_level3_247 | Sending flit 1 to channel at output 2.
31 | node1795 | Ejecting flit 8 (packet 8) from VC 0.
31 | network_0/network_0_fchan_egress1038 | Beginning channel traversal for flit 10 with delay 1.
31 | network_0/network_0_fchan_egress1370 | Beginning channel traversal for flit 6 with delay 1.
31 | network_0/network_0_fchan_egress1779 | Beginning channel traversal for flit 2 with delay 1.
31 | network_0/network_0_fchan_egress1978 | Beginning channel traversal for flit 1 with delay 1.
31 | node1795 | Injecting credit for VC 0 into subnet 0.
31 | node1795 | Retiring flit 8 (packet 8, src = 13, dest = 1795, hops = 7, flat = 31).
31 | node1795 | Retiring packet 8 (plat = 31, nlat = 31, frag = 0, src = 13, dest = 1795).
31 | network_0/router_level3_151 | Beginning crossbar traversal for flit 3 from input 15.0 to output 1.0.
31 | network_0/router_level3_151 | Completed crossbar traversal for flit 3 from input 15.0 to output 1.0.
31 | network_0/router_level3_151 | Buffering flit 3 at output 1.
31 | network_0/network_0_fchan_egress1038 | Completed channel traversal for flit 10.
31 | network_0/network_0_fchan_egress1370 | Completed channel traversal for flit 6.
31 | network_0/network_0_fchan_egress1779 | Completed channel traversal for flit 2.
31 | network_0/network_0_fchan_egress1978 | Completed channel traversal for flit 1.
31 | network_0/router_level3_151 | Sending flit 3 to channel at output 1.
32 | node1038 | Ejecting flit 10 (packet 10) from VC 0.
32 | node1370 | Ejecting flit 6 (packet 6) from VC 0.
32 | node1779 | Ejecting flit 2 (packet 2) from VC 1.
32 | node1978 | Ejecting flit 1 (packet 1) from VC 1.
32 | network_0/network_0_fchan_egress1209 | Beginning channel traversal for flit 3 with delay 1.
32 | node1038 | Injecting credit for VC 0 into subnet 0.
32 | node1038 | Retiring flit 10 (packet 10, src = 15, dest = 1038, hops = 7, flat = 32).
32 | node1038 | Retiring packet 10 (plat = 32, nlat = 32, frag = 0, src = 15, dest = 1038).
32 | node1370 | Injecting credit for VC 0 into subnet 0.
32 | node1370 | Retiring flit 6 (packet 6, src = 11, dest = 1370, hops = 7, flat = 32).
32 | node1370 | Retiring packet 6 (plat = 32, nlat = 32, frag = 0, src = 11, dest = 1370).
32 | node1779 | Injecting credit for VC 1 into subnet 0.
32 | node1779 | Retiring flit 2 (packet 2, src = 4, dest = 1779, hops = 7, flat = 32).
32 | node1779 | Retiring packet 2 (plat = 32, nlat = 32, frag = 0, src = 4, dest = 1779).
32 | node1978 | Injecting credit for VC 1 into subnet 0.
32 | node1978 | Retiring flit 1 (packet 1, src = 3, dest = 1978, hops = 7, flat = 32).
32 | node1978 | Retiring packet 1 (plat = 32, nlat = 32, frag = 0, src = 3, dest = 1978).
32 | network_0/network_0_fchan_egress1209 | Completed channel traversal for flit 3.
33 | node1209 | Ejecting flit 3 (packet 3) from VC 0.
33 | node1209 | Injecting credit for VC 0 into subnet 0.
33 | node1209 | Retiring flit 3 (packet 3, src = 5, dest = 1209, hops = 7, flat = 33).
33 | node1209 | Retiring packet 3 (plat = 33, nlat = 33, frag = 0, src = 5, dest = 1209).
Class 0:
Packet latency average = 106.069
	minimum = 6
	maximum = 391
Network latency average = 106.066
	minimum = 6
	maximum = 391
Slowest packet = 1572824
Flit latency average = 106.066
	minimum = 6
	maximum = 391
Slowest flit = 1572824
Fragmentation average = 0
	minimum = 0
	maximum = 0
Injected packet rate average = 0.699733
	minimum = 0.631 (at node 902)
	maximum = 0.747 (at node 3316)
Accepted packet rate average = 0.591177
	minimum = 0.498 (at node 3306)
	maximum = 0.671 (at node 3345)
Injected flit rate average = 0.699733
	minimum = 0.631 (at node 902)
	maximum = 0.747 (at node 3316)
Accepted flit rate average= 0.591177
	minimum = 0.498 (at node 3306)
	maximum = 0.671 (at node 3345)
Injected packet length average = 1
Accepted packet length average = 1
Total in-flight flits = 444668 (0 measured)
latency change    = 1
throughput change = 1
Class 0:
Packet latency average = 151.374
	minimum = 6
	maximum = 550
Network latency average = 150.728
	minimum = 6
	maximum = 542
Slowest packet = 3601101
Flit latency average = 150.728
	minimum = 6
	maximum = 542
Slowest flit = 3601101
Fragmentation average = 0
	minimum = 0
	maximum = 0
Injected packet rate average = 0.696812
	minimum = 0.6585 (at node 720)
	maximum = 0.73 (at node 313)
Accepted packet rate average = 0.619671
	minimum = 0.5685 (at node 671)
	maximum = 0.6765 (at node 729)
Injected flit rate average = 0.696812
	minimum = 0.6585 (at node 720)
	maximum = 0.73 (at node 313)
Accepted flit rate average= 0.619671
	minimum = 0.5685 (at node 671)
	maximum = 0.6765 (at node 729)
Injected packet length average = 1
Accepted packet length average = 1
Total in-flight flits = 632411 (0 measured)
latency change    = 0.299295
throughput change = 0.0459837
Class 0:
Packet latency average = 260.295
	minimum = 6
	maximum = 685
Network latency average = 245.863
	minimum = 6
	maximum = 590
Slowest packet = 4736796
Flit latency average = 245.863
	minimum = 6
	maximum = 590
Slowest flit = 6580583
Fragmentation average = 0
	minimum = 0
	maximum = 0
Injected packet rate average = 0.680372
	minimum = 0.61 (at node 2662)
	maximum = 0.729 (at node 1258)
Accepted packet rate average = 0.65626
	minimum = 0.571 (at node 2441)
	maximum = 0.755 (at node 3149)
Injected flit rate average = 0.680372
	minimum = 0.61 (at node 2662)
	maximum = 0.729 (at node 1258)
Accepted flit rate average= 0.65626
	minimum = 0.571 (at node 2441)
	maximum = 0.755 (at node 3149)
Injected packet length average = 1
Accepted packet length average = 1
Total in-flight flits = 731697 (0 measured)
latency change    = 0.418452
throughput change = 0.0557531
Warmed up ...Time used is 3000 cycles
Class 0:
Packet latency average = 321.349
	minimum = 6
	maximum = 798
Network latency average = 272.28
	minimum = 6
	maximum = 700
Slowest packet = 8498450
Flit latency average = 275.344
	minimum = 6
	maximum = 700
Slowest flit = 9307012
Fragmentation average = 0
	minimum = 0
	maximum = 0
Injected packet rate average = 0.673095
	minimum = 0.593 (at node 1920)
	maximum = 0.727 (at node 504)
Accepted packet rate average = 0.659912
	minimum = 0.569 (at node 4091)
	maximum = 0.75 (at node 148)
Injected flit rate average = 0.673095
	minimum = 0.593 (at node 1920)
	maximum = 0.727 (at node 504)
Accepted flit rate average= 0.659912
	minimum = 0.569 (at node 4091)
	maximum = 0.75 (at node 148)
Injected packet length average = 1
Accepted packet length average = 1
Total in-flight flits = 785957 (785957 measured)
latency change    = 0.189992
throughput change = 0.00553459
Class 0:
Packet latency average = 352.972
	minimum = 6
	maximum = 929
Network latency average = 284.236
	minimum = 6
	maximum = 724
Slowest packet = 8498450
Flit latency average = 284.15
	minimum = 6
	maximum = 724
Slowest flit = 11976673
Fragmentation average = 0
	minimum = 0
	maximum = 0
Injected packet rate average = 0.671631
	minimum = 0.6 (at node 3268)
	maximum = 0.712 (at node 3772)
Accepted packet rate average = 0.660347
	minimum = 0.5875 (at node 806)
	maximum = 0.7245 (at node 338)
Injected flit rate average = 0.671631
	minimum = 0.6 (at node 3268)
	maximum = 0.712 (at node 3772)
Accepted flit rate average= 0.660347
	minimum = 0.5875 (at node 806)
	maximum = 0.7245 (at node 338)
Injected packet length average = 1
Accepted packet length average = 1
Total in-flight flits = 824479 (824479 measured)
latency change    = 0.0895913
throughput change = 0.000658833
Class 0:
Packet latency average = 382.024
	minimum = 6
	maximum = 1005
Network latency average = 291.99
	minimum = 6
	maximum = 819
Slowest packet = 8498450
Flit latency average = 291.233
	minimum = 6
	maximum = 819
Slowest flit = 14475115
Fragmentation average = 0
	minimum = 0
	maximum = 0
Injected packet rate average = 0.666785
	minimum = 0.609667 (at node 2262)
	maximum = 0.703667 (at node 2213)
Accepted packet rate average = 0.660355
	minimum = 0.605333 (at node 806)
	maximum = 0.712667 (at node 338)
Injected flit rate average = 0.666785
	minimum = 0.609667 (at node 2262)
	maximum = 0.703667 (at node 2213)
Accepted flit rate average= 0.660355
	minimum = 0.605333 (at node 806)
	maximum = 0.712667 (at node 338)
Injected packet length average = 1
Accepted packet length average = 1
Total in-flight flits = 811192 (811192 measured)
latency change    = 0.0760464
throughput change = 1.1954e-05
Class 0:
Packet latency average = 410.788
	minimum = 6
	maximum = 1178
Network latency average = 290.888
	minimum = 6
	maximum = 958
Slowest packet = 8498450
Flit latency average = 290.394
	minimum = 6
	maximum = 958
Slowest flit = 16319331
Fragmentation average = 0
	minimum = 0
	maximum = 0
Injected packet rate average = 0.657291
	minimum = 0.598 (at node 3476)
	maximum = 0.695 (at node 929)
Accepted packet rate average = 0.659767
	minimum = 0.61325 (at node 4091)
	maximum = 0.708 (at node 1007)
Injected flit rate average = 0.657291
	minimum = 0.598 (at node 3476)
	maximum = 0.695 (at node 929)
Accepted flit rate average= 0.659767
	minimum = 0.61325 (at node 4091)
	maximum = 0.708 (at node 1007)
Injected packet length average = 1
Accepted packet length average = 1
Total in-flight flits = 691620 (691620 measured)
latency change    = 0.0700225
throughput change = 0.000890811
Class 0:
Packet latency average = 440.631
	minimum = 6
	maximum = 1312
Network latency average = 283.892
	minimum = 6
	maximum = 958
Slowest packet = 8498450
Flit latency average = 283.876
	minimum = 6
	maximum = 958
Slowest flit = 16319331
Fragmentation average = 0
	minimum = 0
	maximum = 0
Injected packet rate average = 0.657319
	minimum = 0.6036 (at node 3364)
	maximum = 0.6952 (at node 1203)
Accepted packet rate average = 0.658915
	minimum = 0.6178 (at node 3912)
	maximum = 0.7048 (at node 2918)
Injected flit rate average = 0.657319
	minimum = 0.6036 (at node 3364)
	maximum = 0.6952 (at node 1203)
Accepted flit rate average= 0.658915
	minimum = 0.6178 (at node 3912)
	maximum = 0.7048 (at node 2918)
Injected packet length average = 1
Accepted packet length average = 1
Total in-flight flits = 699380 (699380 measured)
latency change    = 0.0677276
throughput change = 0.00129393
Class 0:
Packet latency average = 470.984
	minimum = 6
	maximum = 1433
Network latency average = 279.16
	minimum = 6
	maximum = 958
Slowest packet = 8498450
Flit latency average = 279.361
	minimum = 6
	maximum = 958
Slowest flit = 16319331
Fragmentation average = 0
	minimum = 0
	maximum = 0
Injected packet rate average = 0.65452
	minimum = 0.599833 (at node 3391)
	maximum = 0.6865 (at node 1256)
Accepted packet rate average = 0.658111
	minimum = 0.624333 (at node 2806)
	maximum = 0.695667 (at node 2918)
Injected flit rate average = 0.65452
	minimum = 0.599833 (at node 3391)
	maximum = 0.6865 (at node 1256)
Accepted flit rate average= 0.658111
	minimum = 0.624333 (at node 2806)
	maximum = 0.695667 (at node 2918)
Injected packet length average = 1
Accepted packet length average = 1
Total in-flight flits = 643855 (643855 measured)
latency change    = 0.0644472
throughput change = 0.00122154
Class 0:
Packet latency average = 502.332
	minimum = 6
	maximum = 1481
Network latency average = 274.092
	minimum = 6
	maximum = 958
Slowest packet = 8498450
Flit latency average = 274.461
	minimum = 6
	maximum = 958
Slowest flit = 16319331
Fragmentation average = 0
	minimum = 0
	maximum = 0
Injected packet rate average = 0.656158
	minimum = 0.605286 (at node 3429)
	maximum = 0.686 (at node 934)
Accepted packet rate average = 0.657376
	minimum = 0.624857 (at node 3595)
	maximum = 0.692857 (at node 2918)
Injected flit rate average = 0.656158
	minimum = 0.605286 (at node 3429)
	maximum = 0.686 (at node 934)
Accepted flit rate average= 0.657376
	minimum = 0.624857 (at node 3595)
	maximum = 0.692857 (at node 2918)
Injected packet length average = 1
Accepted packet length average = 1
Total in-flight flits = 697142 (697142 measured)
latency change    = 0.0624035
throughput change = 0.0011175
Average latency for class 0 exceeded 500 cycles. Aborting simulation.
Too many sample periods needed to converge
Simulation unstable, ending ...
Total run time 2705.68
