BEGIN Configuration File: examples/fattree_config_0.60_4_uniform
// $Id: dragonflyconfig 3555 2011-05-16 23:37:55Z dub $

// Copyright (c) 2007-2015, Trustees of The Leland Stanford Junior University
// All rights reserved.
//
// Redistribution and use in source and binary forms, with or without
// modification, are permitted provided that the following conditions are met:
//
// Redistributions of source code must retain the above copyright notice, this
// list of conditions and the following disclaimer.
// Redistributions in binary form must reproduce the above copyright notice,
// this list of conditions and the following disclaimer in the documentation
// and/or other materials provided with the distribution.
//
// THIS SOFTWARE IS PROVIDED BY THE COPYRIGHT HOLDERS AND CONTRIBUTORS "AS IS"
// AND ANY EXPRESS OR IMPLIED WARRANTIES, INCLUDING, BUT NOT LIMITED TO, THE
// IMPLIED WARRANTIES OF MERCHANTABILITY AND FITNESS FOR A PARTICULAR PURPOSE
// ARE DISCLAIMED. IN NO EVENT SHALL THE COPYRIGHT OWNER OR CONTRIBUTORS BE
// LIABLE FOR ANY DIRECT, INDIRECT, INCIDENTAL, SPECIAL, EXEMPLARY, OR
// CONSEQUENTIAL DAMAGES (INCLUDING, BUT NOT LIMITED TO, PROCUREMENT OF
// SUBSTITUTE GOODS OR SERVICES; LOSS OF USE, DATA, OR PROFITS; OR BUSINESS
// INTERRUPTION) HOWEVER CAUSED AND ON ANY THEORY OF LIABILITY, WHETHER IN
// CONTRACT, STRICT LIABILITY, OR TORT (INCLUDING NEGLIGENCE OR OTHERWISE)
// ARISING IN ANY WAY OUT OF THE USE OF THIS SOFTWARE, EVEN IF ADVISED OF THE
// POSSIBILITY OF SUCH DAMAGE.


hold_switch_for_packet=1;

vc_buf_size = 16;


wait_for_tail_credit = 0;

//
// Router architecture
//
vc_allocator = separable_input_first; 
sw_allocator = separable_input_first;
alloc_iters  = 1;

credit_delay   = 2;
routing_delay  = 0;
vc_alloc_delay = 1;
sw_alloc_delay = 1;
st_final_delay = 1;

input_speedup     = 1;
output_speedup    = 1;
internal_speedup  = 1.0;


warmup_periods = 3;
sim_count          = 1;

sample_period  = 1000;  

routing_function = nca;
num_vcs     = 4;

priority = none;
traffic = uniform;


injection_rate = 0.60;
packet_size = 1;
injection_rate_uses_flits=1;

topology = fattree;

k  = 8;
n  = 4;
t = 4;

watch_file = watchfile.txt;
watch_out=-;
stats_out = examples/fattree_config_0.60_4_uniform.m;

END Configuration File: examples/fattree_config_0.60_4_uniform
Fat Tree
 k = 8 levels = 4
 each switch - total radix =  16
 # of switches = 2048
 # of channels = 24576
 # of nodes ( size of network ) = 4096
 tapering factor = 4
0 | node4 | Enqueuing flit 1 (packet 1) at time 0.
0 | node5 | Enqueuing flit 2 (packet 2) at time 0.
0 | node8 | Enqueuing flit 3 (packet 3) at time 0.
0 | node9 | Enqueuing flit 4 (packet 4) at time 0.
0 | node11 | Enqueuing flit 5 (packet 5) at time 0.
0 | node12 | Enqueuing flit 6 (packet 6) at time 0.
0 | node13 | Enqueuing flit 7 (packet 7) at time 0.
0 | node14 | Enqueuing flit 8 (packet 8) at time 0.
0 | node15 | Enqueuing flit 9 (packet 9) at time 0.
0 | node17 | Enqueuing flit 10 (packet 10) at time 0.
0 | traffic_manager | Finding output VC for flit 1:
0 | traffic_manager |   Selected output VC 0.
0 | node4 | Generating lookahead routing info for flit 1.
0 | node4 | Injecting flit 1 into subnet 0 at time 0 with priority 0.
0 | traffic_manager | Finding output VC for flit 2:
0 | traffic_manager |   Selected output VC 0.
0 | node5 | Generating lookahead routing info for flit 2.
0 | node5 | Injecting flit 2 into subnet 0 at time 0 with priority 0.
0 | traffic_manager | Finding output VC for flit 3:
0 | traffic_manager |   Selected output VC 0.
0 | node8 | Generating lookahead routing info for flit 3.
0 | node8 | Injecting flit 3 into subnet 0 at time 0 with priority 0.
0 | traffic_manager | Finding output VC for flit 4:
0 | traffic_manager |   Selected output VC 0.
0 | node9 | Generating lookahead routing info for flit 4.
0 | node9 | Injecting flit 4 into subnet 0 at time 0 with priority 0.
0 | traffic_manager | Finding output VC for flit 5:
0 | traffic_manager |   Selected output VC 0.
0 | node11 | Generating lookahead routing info for flit 5.
0 | node11 | Injecting flit 5 into subnet 0 at time 0 with priority 0.
0 | traffic_manager | Finding output VC for flit 6:
0 | traffic_manager |   Selected output VC 0.
0 | node12 | Generating lookahead routing info for flit 6.
0 | node12 | Injecting flit 6 into subnet 0 at time 0 with priority 0.
0 | traffic_manager | Finding output VC for flit 7:
0 | traffic_manager |   Selected output VC 0.
0 | node13 | Generating lookahead routing info for flit 7.
0 | node13 | Injecting flit 7 into subnet 0 at time 0 with priority 0.
0 | traffic_manager | Finding output VC for flit 8:
0 | traffic_manager |   Selected output VC 0.
0 | node14 | Generating lookahead routing info for flit 8.
0 | node14 | Injecting flit 8 into subnet 0 at time 0 with priority 0.
0 | traffic_manager | Finding output VC for flit 9:
0 | traffic_manager |   Selected output VC 0.
0 | node15 | Generating lookahead routing info for flit 9.
0 | node15 | Injecting flit 9 into subnet 0 at time 0 with priority 0.
0 | traffic_manager | Finding output VC for flit 10:
0 | traffic_manager |   Selected output VC 0.
0 | node17 | Generating lookahead routing info for flit 10.
0 | node17 | Injecting flit 10 into subnet 0 at time 0 with priority 0.
1 | network_0/network_0_fchan_ingress4 | Beginning channel traversal for flit 1 with delay 1.
1 | network_0/network_0_fchan_ingress5 | Beginning channel traversal for flit 2 with delay 1.
1 | network_0/network_0_fchan_ingress8 | Beginning channel traversal for flit 3 with delay 1.
1 | network_0/network_0_fchan_ingress9 | Beginning channel traversal for flit 4 with delay 1.
1 | network_0/network_0_fchan_ingress11 | Beginning channel traversal for flit 5 with delay 1.
1 | network_0/network_0_fchan_ingress12 | Beginning channel traversal for flit 6 with delay 1.
1 | network_0/network_0_fchan_ingress13 | Beginning channel traversal for flit 7 with delay 1.
1 | network_0/network_0_fchan_ingress14 | Beginning channel traversal for flit 8 with delay 1.
1 | network_0/network_0_fchan_ingress15 | Beginning channel traversal for flit 9 with delay 1.
1 | network_0/network_0_fchan_ingress17 | Beginning channel traversal for flit 10 with delay 1.
1 | network_0/network_0_fchan_ingress4 | Completed channel traversal for flit 1.
1 | network_0/network_0_fchan_ingress5 | Completed channel traversal for flit 2.
1 | network_0/network_0_fchan_ingress8 | Completed channel traversal for flit 3.
1 | network_0/network_0_fchan_ingress9 | Completed channel traversal for flit 4.
1 | network_0/network_0_fchan_ingress11 | Completed channel traversal for flit 5.
1 | network_0/network_0_fchan_ingress12 | Completed channel traversal for flit 6.
1 | network_0/network_0_fchan_ingress13 | Completed channel traversal for flit 7.
1 | network_0/network_0_fchan_ingress14 | Completed channel traversal for flit 8.
1 | network_0/network_0_fchan_ingress15 | Completed channel traversal for flit 9.
1 | network_0/network_0_fchan_ingress17 | Completed channel traversal for flit 10.
2 | network_0/router_level3_0 | Received flit 1 from channel at input 4.
2 | network_0/router_level3_0 | Received flit 2 from channel at input 5.
2 | network_0/router_level3_1 | Received flit 3 from channel at input 0.
2 | network_0/router_level3_1 | Received flit 4 from channel at input 1.
2 | network_0/router_level3_1 | Received flit 5 from channel at input 3.
2 | network_0/router_level3_1 | Received flit 6 from channel at input 4.
2 | network_0/router_level3_1 | Received flit 7 from channel at input 5.
2 | network_0/router_level3_1 | Received flit 8 from channel at input 6.
2 | network_0/router_level3_1 | Received flit 9 from channel at input 7.
2 | network_0/router_level3_2 | Received flit 10 from channel at input 1.
2 | network_0/router_level3_0 | Adding flit 1 to VC 0 at input 4 (state: idle, empty).
2 | network_0/router_level3_0 | Using precomputed lookahead routing information for VC 0 at input 4 (front: 1).
2 | network_0/router_level3_0/buf_4/vc_0 | Changing state from idle to vc_alloc.
2 | network_0/router_level3_0 | Adding flit 2 to VC 0 at input 5 (state: idle, empty).
2 | network_0/router_level3_0 | Using precomputed lookahead routing information for VC 0 at input 5 (front: 2).
2 | network_0/router_level3_0/buf_5/vc_0 | Changing state from idle to vc_alloc.
2 | network_0/router_level3_0 | Beginning VC allocation for VC 0 at input 4 (front: 1).
2 | network_0/router_level3_0 |   Requesting VC 0 at output 13 (in_pri: 0, out_pri: 0).
2 | network_0/router_level3_0 |   Requesting VC 1 at output 13 (in_pri: 0, out_pri: 0).
2 | network_0/router_level3_0 |   Requesting VC 2 at output 13 (in_pri: 0, out_pri: 0).
2 | network_0/router_level3_0 |   Requesting VC 3 at output 13 (in_pri: 0, out_pri: 0).
2 | network_0/router_level3_0 | Beginning VC allocation for VC 0 at input 5 (front: 2).
2 | network_0/router_level3_0 |   Requesting VC 0 at output 13 (in_pri: 0, out_pri: 0).
2 | network_0/router_level3_0 |   Requesting VC 1 at output 13 (in_pri: 0, out_pri: 0).
2 | network_0/router_level3_0 |   Requesting VC 2 at output 13 (in_pri: 0, out_pri: 0).
2 | network_0/router_level3_0 |   Requesting VC 3 at output 13 (in_pri: 0, out_pri: 0).
2 | network_0/router_level3_0/vc_allocator | Input requests = [ 4 -> [ 60@0 61@0 62@0 63@0 ]  16 -> [ 52@0 53@0 54@0 55@0 ]  20 -> [ 52@0 53@0 54@0 55@0 ]  ], output requests = [ 52 -> [ 16@0 20@0 ]  53 -> [ 16@0 20@0 ]  54 -> [ 16@0 20@0 ]  55 -> [ 16@0 20@0 ]  60 -> [ 4@0 ]  61 -> [ 4@0 ]  62 -> [ 4@0 ]  63 -> [ 4@0 ]  ].
2 | network_0/router_level3_0/vc_allocator | Input grants = [ 4 -> 60  16 -> 52  ], output grants = [ 52 -> 16  60 -> 4  ].
2 | network_0/router_level3_0 | Assigning VC 0 at output 13 to VC 0 at input 4.
2 | network_0/router_level3_0 | VC allocation failed for VC 0 at input 5.
2 | network_0/router_level3_0 | Completed VC allocation for VC 0 at input 4 (front: 1).
2 | network_0/router_level3_0 |   Acquiring assigned VC 0 at output 13.
2 | network_0/router_level3_0/buf_4/vc_0 | Changing state from vc_alloc to active.
2 | network_0/router_level3_0 | Completed VC allocation for VC 0 at input 5 (front: 2).
2 | network_0/router_level3_0 |   No output VC allocated.
2 | network_0/router_level3_1 | Adding flit 3 to VC 0 at input 0 (state: idle, empty).
2 | network_0/router_level3_1 | Using precomputed lookahead routing information for VC 0 at input 0 (front: 3).
2 | network_0/router_level3_1/buf_0/vc_0 | Changing state from idle to vc_alloc.
2 | network_0/router_level3_1 | Adding flit 4 to VC 0 at input 1 (state: idle, empty).
2 | network_0/router_level3_1 | Using precomputed lookahead routing information for VC 0 at input 1 (front: 4).
2 | network_0/router_level3_1/buf_1/vc_0 | Changing state from idle to vc_alloc.
2 | network_0/router_level3_1 | Adding flit 5 to VC 0 at input 3 (state: idle, empty).
2 | network_0/router_level3_1 | Using precomputed lookahead routing information for VC 0 at input 3 (front: 5).
2 | network_0/router_level3_1/buf_3/vc_0 | Changing state from idle to vc_alloc.
2 | network_0/router_level3_1 | Adding flit 6 to VC 0 at input 4 (state: idle, empty).
2 | network_0/router_level3_1 | Using precomputed lookahead routing information for VC 0 at input 4 (front: 6).
2 | network_0/router_level3_1/buf_4/vc_0 | Changing state from idle to vc_alloc.
2 | network_0/router_level3_1 | Adding flit 7 to VC 0 at input 5 (state: idle, empty).
2 | network_0/router_level3_1 | Using precomputed lookahead routing information for VC 0 at input 5 (front: 7).
2 | network_0/router_level3_1/buf_5/vc_0 | Changing state from idle to vc_alloc.
2 | network_0/router_level3_1 | Adding flit 8 to VC 0 at input 6 (state: idle, empty).
2 | network_0/router_level3_1 | Using precomputed lookahead routing information for VC 0 at input 6 (front: 8).
2 | network_0/router_level3_1/buf_6/vc_0 | Changing state from idle to vc_alloc.
2 | network_0/router_level3_1 | Adding flit 9 to VC 0 at input 7 (state: idle, empty).
2 | network_0/router_level3_1 | Using precomputed lookahead routing information for VC 0 at input 7 (front: 9).
2 | network_0/router_level3_1/buf_7/vc_0 | Changing state from idle to vc_alloc.
2 | network_0/router_level3_1 | Beginning VC allocation for VC 0 at input 0 (front: 3).
2 | network_0/router_level3_1 |   Requesting VC 0 at output 15 (in_pri: 0, out_pri: 0).
2 | network_0/router_level3_1 |   Requesting VC 1 at output 15 (in_pri: 0, out_pri: 0).
2 | network_0/router_level3_1 |   Requesting VC 2 at output 15 (in_pri: 0, out_pri: 0).
2 | network_0/router_level3_1 |   Requesting VC 3 at output 15 (in_pri: 0, out_pri: 0).
2 | network_0/router_level3_1 | Beginning VC allocation for VC 0 at input 1 (front: 4).
2 | network_0/router_level3_1 |   Requesting VC 0 at output 10 (in_pri: 0, out_pri: 0).
2 | network_0/router_level3_1 |   Requesting VC 1 at output 10 (in_pri: 0, out_pri: 0).
2 | network_0/router_level3_1 |   Requesting VC 2 at output 10 (in_pri: 0, out_pri: 0).
2 | network_0/router_level3_1 |   Requesting VC 3 at output 10 (in_pri: 0, out_pri: 0).
2 | network_0/router_level3_1 | Beginning VC allocation for VC 0 at input 3 (front: 5).
2 | network_0/router_level3_1 |   Requesting VC 0 at output 14 (in_pri: 0, out_pri: 0).
2 | network_0/router_level3_1 |   Requesting VC 1 at output 14 (in_pri: 0, out_pri: 0).
2 | network_0/router_level3_1 |   Requesting VC 2 at output 14 (in_pri: 0, out_pri: 0).
2 | network_0/router_level3_1 |   Requesting VC 3 at output 14 (in_pri: 0, out_pri: 0).
2 | network_0/router_level3_1 | Beginning VC allocation for VC 0 at input 4 (front: 6).
2 | network_0/router_level3_1 |   Requesting VC 0 at output 9 (in_pri: 0, out_pri: 0).
2 | network_0/router_level3_1 |   Requesting VC 1 at output 9 (in_pri: 0, out_pri: 0).
2 | network_0/router_level3_1 |   Requesting VC 2 at output 9 (in_pri: 0, out_pri: 0).
2 | network_0/router_level3_1 |   Requesting VC 3 at output 9 (in_pri: 0, out_pri: 0).
2 | network_0/router_level3_1 | Beginning VC allocation for VC 0 at input 5 (front: 7).
2 | network_0/router_level3_1 |   Requesting VC 0 at output 12 (in_pri: 0, out_pri: 0).
2 | network_0/router_level3_1 |   Requesting VC 1 at output 12 (in_pri: 0, out_pri: 0).
2 | network_0/router_level3_1 |   Requesting VC 2 at output 12 (in_pri: 0, out_pri: 0).
2 | network_0/router_level3_1 |   Requesting VC 3 at output 12 (in_pri: 0, out_pri: 0).
2 | network_0/router_level3_1 | Beginning VC allocation for VC 0 at input 6 (front: 8).
2 | network_0/router_level3_1 |   Requesting VC 0 at output 8 (in_pri: 0, out_pri: 0).
2 | network_0/router_level3_1 |   Requesting VC 1 at output 8 (in_pri: 0, out_pri: 0).
2 | network_0/router_level3_1 |   Requesting VC 2 at output 8 (in_pri: 0, out_pri: 0).
2 | network_0/router_level3_1 |   Requesting VC 3 at output 8 (in_pri: 0, out_pri: 0).
2 | network_0/router_level3_1 | Beginning VC allocation for VC 0 at input 7 (front: 9).
2 | network_0/router_level3_1 |   Requesting VC 0 at output 15 (in_pri: 0, out_pri: 0).
2 | network_0/router_level3_1 |   Requesting VC 1 at output 15 (in_pri: 0, out_pri: 0).
2 | network_0/router_level3_1 |   Requesting VC 2 at output 15 (in_pri: 0, out_pri: 0).
2 | network_0/router_level3_1 |   Requesting VC 3 at output 15 (in_pri: 0, out_pri: 0).
2 | network_0/router_level3_1/vc_allocator | Input requests = [ 0 -> [ 60@0 61@0 62@0 63@0 ]  4 -> [ 40@0 41@0 42@0 43@0 ]  12 -> [ 56@0 57@0 58@0 59@0 ]  16 -> [ 36@0 37@0 38@0 39@0 ]  20 -> [ 48@0 49@0 50@0 51@0 ]  24 -> [ 32@0 33@0 34@0 35@0 ]  28 -> [ 60@0 61@0 62@0 63@0 ]  ], output requests = [ 32 -> [ 24@0 ]  33 -> [ 24@0 ]  34 -> [ 24@0 ]  35 -> [ 24@0 ]  36 -> [ 16@0 ]  37 -> [ 16@0 ]  38 -> [ 16@0 ]  39 -> [ 16@0 ]  40 -> [ 4@0 ]  41 -> [ 4@0 ]  42 -> [ 4@0 ]  43 -> [ 4@0 ]  48 -> [ 20@0 ]  49 -> [ 20@0 ]  50 -> [ 20@0 ]  51 -> [ 20@0 ]  56 -> [ 12@0 ]  57 -> [ 12@0 ]  58 -> [ 12@0 ]  59 -> [ 12@0 ]  60 -> [ 0@0 28@0 ]  61 -> [ 0@0 28@0 ]  62 -> [ 0@0 28@0 ]  63 -> [ 0@0 28@0 ]  ].
2 | network_0/router_level3_1/vc_allocator | Input grants = [ 0 -> 60  4 -> 40  12 -> 56  16 -> 36  20 -> 48  24 -> 32  ], output grants = [ 32 -> 24  36 -> 16  40 -> 4  48 -> 20  56 -> 12  60 -> 0  ].
2 | network_0/router_level3_1 | Assigning VC 0 at output 15 to VC 0 at input 0.
2 | network_0/router_level3_1 | Assigning VC 0 at output 10 to VC 0 at input 1.
2 | network_0/router_level3_1 | Assigning VC 0 at output 14 to VC 0 at input 3.
2 | network_0/router_level3_1 | Assigning VC 0 at output 9 to VC 0 at input 4.
2 | network_0/router_level3_1 | Assigning VC 0 at output 12 to VC 0 at input 5.
2 | network_0/router_level3_1 | Assigning VC 0 at output 8 to VC 0 at input 6.
2 | network_0/router_level3_1 | VC allocation failed for VC 0 at input 7.
2 | network_0/router_level3_1 | Completed VC allocation for VC 0 at input 0 (front: 3).
2 | network_0/router_level3_1 |   Acquiring assigned VC 0 at output 15.
2 | network_0/router_level3_1/buf_0/vc_0 | Changing state from vc_alloc to active.
2 | network_0/router_level3_1 | Completed VC allocation for VC 0 at input 1 (front: 4).
2 | network_0/router_level3_1 |   Acquiring assigned VC 0 at output 10.
2 | network_0/router_level3_1/buf_1/vc_0 | Changing state from vc_alloc to active.
2 | network_0/router_level3_1 | Completed VC allocation for VC 0 at input 3 (front: 5).
2 | network_0/router_level3_1 |   Acquiring assigned VC 0 at output 14.
2 | network_0/router_level3_1/buf_3/vc_0 | Changing state from vc_alloc to active.
2 | network_0/router_level3_1 | Completed VC allocation for VC 0 at input 4 (front: 6).
2 | network_0/router_level3_1 |   Acquiring assigned VC 0 at output 9.
2 | network_0/router_level3_1/buf_4/vc_0 | Changing state from vc_alloc to active.
2 | network_0/router_level3_1 | Completed VC allocation for VC 0 at input 5 (front: 7).
2 | network_0/router_level3_1 |   Acquiring assigned VC 0 at output 12.
2 | network_0/router_level3_1/buf_5/vc_0 | Changing state from vc_alloc to active.
2 | network_0/router_level3_1 | Completed VC allocation for VC 0 at input 6 (front: 8).
2 | network_0/router_level3_1 |   Acquiring assigned VC 0 at output 8.
2 | network_0/router_level3_1/buf_6/vc_0 | Changing state from vc_alloc to active.
2 | network_0/router_level3_1 | Completed VC allocation for VC 0 at input 7 (front: 9).
2 | network_0/router_level3_1 |   No output VC allocated.
2 | network_0/router_level3_2 | Adding flit 10 to VC 0 at input 1 (state: idle, empty).
2 | network_0/router_level3_2 | Using precomputed lookahead routing information for VC 0 at input 1 (front: 10).
2 | network_0/router_level3_2/buf_1/vc_0 | Changing state from idle to vc_alloc.
2 | network_0/router_level3_2 | Beginning VC allocation for VC 0 at input 1 (front: 10).
2 | network_0/router_level3_2 |   Requesting VC 0 at output 10 (in_pri: 0, out_pri: 0).
2 | network_0/router_level3_2 |   Requesting VC 1 at output 10 (in_pri: 0, out_pri: 0).
2 | network_0/router_level3_2 |   Requesting VC 2 at output 10 (in_pri: 0, out_pri: 0).
2 | network_0/router_level3_2 |   Requesting VC 3 at output 10 (in_pri: 0, out_pri: 0).
2 | network_0/router_level3_2/vc_allocator | Input requests = [ 4 -> [ 40@0 41@0 42@0 43@0 ]  8 -> [ 44@0 45@0 46@0 47@0 ]  12 -> [ 40@0 41@0 42@0 43@0 ]  16 -> [ 48@0 49@0 50@0 51@0 ]  20 -> [ 32@0 33@0 34@0 35@0 ]  24 -> [ 36@0 37@0 38@0 39@0 ]  28 -> [ 52@0 53@0 54@0 55@0 ]  ], output requests = [ 32 -> [ 20@0 ]  33 -> [ 20@0 ]  34 -> [ 20@0 ]  35 -> [ 20@0 ]  36 -> [ 24@0 ]  37 -> [ 24@0 ]  38 -> [ 24@0 ]  39 -> [ 24@0 ]  40 -> [ 4@0 12@0 ]  41 -> [ 4@0 12@0 ]  42 -> [ 4@0 12@0 ]  43 -> [ 4@0 12@0 ]  44 -> [ 8@0 ]  45 -> [ 8@0 ]  46 -> [ 8@0 ]  47 -> [ 8@0 ]  48 -> [ 16@0 ]  49 -> [ 16@0 ]  50 -> [ 16@0 ]  51 -> [ 16@0 ]  52 -> [ 28@0 ]  53 -> [ 28@0 ]  54 -> [ 28@0 ]  55 -> [ 28@0 ]  ].
2 | network_0/router_level3_2/vc_allocator | Input grants = [ 4 -> 40  8 -> 44  16 -> 48  20 -> 32  24 -> 36  28 -> 52  ], output grants = [ 32 -> 20  36 -> 24  40 -> 4  44 -> 8  48 -> 16  52 -> 28  ].
2 | network_0/router_level3_2 | Assigning VC 0 at output 10 to VC 0 at input 1.
2 | network_0/router_level3_2 | Completed VC allocation for VC 0 at input 1 (front: 10).
2 | network_0/router_level3_2 |   Acquiring assigned VC 0 at output 10.
2 | network_0/router_level3_2/buf_1/vc_0 | Changing state from vc_alloc to active.
3 | network_0/router_level3_0 | Beginning VC allocation for VC 0 at input 5 (front: 2).
3 | network_0/router_level3_0 |   VC 0 at output 13 is in use by VC 0 at input 4 (front flit: 1).
3 | network_0/router_level3_0 |   Requesting VC 1 at output 13 (in_pri: 0, out_pri: 0).
3 | network_0/router_level3_0 |   Requesting VC 2 at output 13 (in_pri: 0, out_pri: 0).
3 | network_0/router_level3_0 |   Requesting VC 3 at output 13 (in_pri: 0, out_pri: 0).
3 | network_0/router_level3_0/vc_allocator | Input requests = [ 0 -> [ 36@0 37@0 38@0 39@0 ]  5 -> [ 32@0 33@0 34@0 35@0 ]  8 -> [ 32@0 33@0 34@0 35@0 ]  12 -> [ 36@0 37@0 38@0 39@0 ]  17 -> [ 36@0 37@0 38@0 39@0 ]  20 -> [ 53@0 54@0 55@0 ]  21 -> [ 40@0 41@0 42@0 43@0 ]  24 -> [ 53@0 54@0 55@0 ]  ], output requests = [ 32 -> [ 5@0 8@0 ]  33 -> [ 5@0 8@0 ]  34 -> [ 5@0 8@0 ]  35 -> [ 5@0 8@0 ]  36 -> [ 0@0 12@0 17@0 ]  37 -> [ 0@0 12@0 17@0 ]  38 -> [ 0@0 12@0 17@0 ]  39 -> [ 0@0 12@0 17@0 ]  40 -> [ 21@0 ]  41 -> [ 21@0 ]  42 -> [ 21@0 ]  43 -> [ 21@0 ]  53 -> [ 20@0 24@0 ]  54 -> [ 20@0 24@0 ]  55 -> [ 20@0 24@0 ]  ].
3 | network_0/router_level3_0/vc_allocator | Input grants = [ 0 -> 36  5 -> 32  20 -> 53  21 -> 40  ], output grants = [ 32 -> 5  36 -> 0  40 -> 21  53 -> 20  ].
3 | network_0/router_level3_0 | Assigning VC 1 at output 13 to VC 0 at input 5.
3 | network_0/router_level3_0 | Beginning switch allocation for VC 0 at input 4 (front: 1).
3 | network_0/router_level3_0 |   Requesting output 13.0 (non-spec, pri: 0).
3 | network_0/router_level3_0/sw_allocator | Input requests = [ 1 -> [ 15@0 ]  4 -> [ 13@0 ]  ], output requests = [ 13 -> [ 4@0 ]  15 -> [ 1@0 ]  ].
3 | network_0/router_level3_0/sw_allocator | Input grants = [ 1 -> 15  4 -> 13  ], output grants = [ 13 -> 4  15 -> 1  ].
3 | network_0/router_level3_0 | Assigning output 13.0 to VC 0 at input 4.0.
3 | network_0/router_level3_0 | Completed VC allocation for VC 0 at input 5 (front: 2).
3 | network_0/router_level3_0 |   Acquiring assigned VC 1 at output 13.
3 | network_0/router_level3_0/buf_5/vc_0 | Changing state from vc_alloc to active.
3 | network_0/router_level3_0 | Completed switch allocation for VC 0 at input 4 (front: 1).
3 | network_0/router_level3_0 |   Scheduling switch connection from input 4.0 to output 13.0.
3 | network_0/router_level3_0 | Updating lookahead routing information for flit 1.
3 | network_0/router_level3_1 | Beginning VC allocation for VC 0 at input 7 (front: 9).
3 | network_0/router_level3_1 |   VC 0 at output 15 is in use by VC 0 at input 0 (front flit: 3).
3 | network_0/router_level3_1 |   Requesting VC 1 at output 15 (in_pri: 0, out_pri: 0).
3 | network_0/router_level3_1 |   Requesting VC 2 at output 15 (in_pri: 0, out_pri: 0).
3 | network_0/router_level3_1 |   Requesting VC 3 at output 15 (in_pri: 0, out_pri: 0).
3 | network_0/router_level3_1/vc_allocator | Input requests = [ 5 -> [ 41@0 42@0 43@0 ]  17 -> [ 49@0 50@0 51@0 ]  21 -> [ 37@0 38@0 39@0 ]  25 -> [ 49@0 50@0 51@0 ]  28 -> [ 61@0 62@0 63@0 ]  ], output requests = [ 37 -> [ 21@0 ]  38 -> [ 21@0 ]  39 -> [ 21@0 ]  41 -> [ 5@0 ]  42 -> [ 5@0 ]  43 -> [ 5@0 ]  49 -> [ 17@0 25@0 ]  50 -> [ 17@0 25@0 ]  51 -> [ 17@0 25@0 ]  61 -> [ 28@0 ]  62 -> [ 28@0 ]  63 -> [ 28@0 ]  ].
3 | network_0/router_level3_1/vc_allocator | Input grants = [ 5 -> 41  17 -> 49  21 -> 37  28 -> 61  ], output grants = [ 37 -> 21  41 -> 5  49 -> 17  61 -> 28  ].
3 | network_0/router_level3_1 | Assigning VC 1 at output 15 to VC 0 at input 7.
3 | network_0/router_level3_1 | Beginning switch allocation for VC 0 at input 0 (front: 3).
3 | network_0/router_level3_1 |   Requesting output 15.0 (non-spec, pri: 0).
3 | network_0/router_level3_1 | Beginning switch allocation for VC 0 at input 1 (front: 4).
3 | network_0/router_level3_1 |   Requesting output 10.0 (non-spec, pri: 0).
3 | network_0/router_level3_1 | Beginning switch allocation for VC 0 at input 3 (front: 5).
3 | network_0/router_level3_1 |   Requesting output 14.0 (non-spec, pri: 0).
3 | network_0/router_level3_1 | Beginning switch allocation for VC 0 at input 4 (front: 6).
3 | network_0/router_level3_1 |   Requesting output 9.0 (non-spec, pri: 0).
3 | network_0/router_level3_1 | Beginning switch allocation for VC 0 at input 5 (front: 7).
3 | network_0/router_level3_1 |   Requesting output 12.0 (non-spec, pri: 0).
3 | network_0/router_level3_1 | Beginning switch allocation for VC 0 at input 6 (front: 8).
3 | network_0/router_level3_1 |   Requesting output 8.0 (non-spec, pri: 0).
3 | network_0/router_level3_1/sw_allocator | Input requests = [ 0 -> [ 15@0 ]  1 -> [ 10@0 ]  3 -> [ 14@0 ]  4 -> [ 9@0 ]  5 -> [ 12@0 ]  6 -> [ 8@0 ]  ], output requests = [ 8 -> [ 6@0 ]  9 -> [ 4@0 ]  10 -> [ 1@0 ]  12 -> [ 5@0 ]  14 -> [ 3@0 ]  15 -> [ 0@0 ]  ].
3 | network_0/router_level3_1/sw_allocator | Input grants = [ 0 -> 15  1 -> 10  3 -> 14  4 -> 9  5 -> 12  6 -> 8  ], output grants = [ 8 -> 6  9 -> 4  10 -> 1  12 -> 5  14 -> 3  15 -> 0  ].
3 | network_0/router_level3_1 | Assigning output 15.0 to VC 0 at input 0.0.
3 | network_0/router_level3_1 | Assigning output 10.0 to VC 0 at input 1.0.
3 | network_0/router_level3_1 | Assigning output 14.0 to VC 0 at input 3.0.
3 | network_0/router_level3_1 | Assigning output 9.0 to VC 0 at input 4.0.
3 | network_0/router_level3_1 | Assigning output 12.0 to VC 0 at input 5.0.
3 | network_0/router_level3_1 | Assigning output 8.0 to VC 0 at input 6.0.
3 | network_0/router_level3_1 | Completed VC allocation for VC 0 at input 7 (front: 9).
3 | network_0/router_level3_1 |   Acquiring assigned VC 1 at output 15.
3 | network_0/router_level3_1/buf_7/vc_0 | Changing state from vc_alloc to active.
3 | network_0/router_level3_1 | Completed switch allocation for VC 0 at input 0 (front: 3).
3 | network_0/router_level3_1 |   Scheduling switch connection from input 0.0 to output 15.0.
3 | network_0/router_level3_1 | Updating lookahead routing information for flit 3.
3 | network_0/router_level3_1 | Completed switch allocation for VC 0 at input 1 (front: 4).
3 | network_0/router_level3_1 |   Scheduling switch connection from input 1.0 to output 10.0.
3 | network_0/router_level3_1 | Updating lookahead routing information for flit 4.
3 | network_0/router_level3_1 | Completed switch allocation for VC 0 at input 3 (front: 5).
3 | network_0/router_level3_1 |   Scheduling switch connection from input 3.0 to output 14.0.
3 | network_0/router_level3_1 | Updating lookahead routing information for flit 5.
3 | network_0/router_level3_1 | Completed switch allocation for VC 0 at input 4 (front: 6).
3 | network_0/router_level3_1 |   Scheduling switch connection from input 4.0 to output 9.0.
3 | network_0/router_level3_1 | Updating lookahead routing information for flit 6.
3 | network_0/router_level3_1 | Completed switch allocation for VC 0 at input 5 (front: 7).
3 | network_0/router_level3_1 |   Scheduling switch connection from input 5.0 to output 12.0.
3 | network_0/router_level3_1 | Updating lookahead routing information for flit 7.
3 | network_0/router_level3_1 | Completed switch allocation for VC 0 at input 6 (front: 8).
3 | network_0/router_level3_1 |   Scheduling switch connection from input 6.0 to output 8.0.
3 | network_0/router_level3_1 | Updating lookahead routing information for flit 8.
3 | network_0/router_level3_2 | Beginning switch allocation for VC 0 at input 1 (front: 10).
3 | network_0/router_level3_2 |   Requesting output 10.0 (non-spec, pri: 0).
3 | network_0/router_level3_2/sw_allocator | Input requests = [ 1 -> [ 10@0 ]  2 -> [ 11@0 ]  4 -> [ 12@0 ]  5 -> [ 8@0 ]  6 -> [ 9@0 ]  7 -> [ 13@0 ]  ], output requests = [ 8 -> [ 5@0 ]  9 -> [ 6@0 ]  10 -> [ 1@0 ]  11 -> [ 2@0 ]  12 -> [ 4@0 ]  13 -> [ 7@0 ]  ].
3 | network_0/router_level3_2/sw_allocator | Input grants = [ 1 -> 10  2 -> 11  4 -> 12  5 -> 8  6 -> 9  7 -> 13  ], output grants = [ 8 -> 5  9 -> 6  10 -> 1  11 -> 2  12 -> 4  13 -> 7  ].
3 | network_0/router_level3_2 | Assigning output 10.0 to VC 0 at input 1.0.
3 | network_0/router_level3_2 | Completed switch allocation for VC 0 at input 1 (front: 10).
3 | network_0/router_level3_2 |   Scheduling switch connection from input 1.0 to output 10.0.
3 | network_0/router_level3_2 | Updating lookahead routing information for flit 10.
4 | network_0/router_level3_0 | Beginning switch allocation for VC 0 at input 5 (front: 2).
4 | network_0/router_level3_0 |   Requesting output 13.0 (non-spec, pri: 0).
4 | network_0/router_level3_0/sw_allocator | Input requests = [ 0 -> [ 9@0 ]  1 -> [ 8@0 ]  5 -> [ 10@0 13@0 ]  ], output requests = [ 8 -> [ 1@0 ]  9 -> [ 0@0 ]  10 -> [ 5@0 ]  13 -> [ 5@0 ]  ].
4 | network_0/router_level3_0/sw_allocator | Input grants = [ 0 -> 9  1 -> 8  5 -> 10  ], output grants = [ 8 -> 1  9 -> 0  10 -> 5  ].
4 | network_0/router_level3_0 | Switch allocation failed for VC 0 at input 5: Granted to VC 1.
4 | network_0/router_level3_0 | Beginning crossbar traversal for flit 1 from input 4.0 to output 13.0.
4 | network_0/router_level3_0 | Completed switch allocation for VC 0 at input 5 (front: 2).
4 | network_0/router_level3_0 |   No output port allocated.
4 | network_0/router_level3_0 | Completed crossbar traversal for flit 1 from input 4.0 to output 13.0.
4 | network_0/router_level3_0 | Buffering flit 1 at output 13.
4 | network_0/router_level3_1 | Beginning switch allocation for VC 0 at input 7 (front: 9).
4 | network_0/router_level3_1 |   Requesting output 15.0 (non-spec, pri: 0).
4 | network_0/router_level3_1/sw_allocator | Input requests = [ 1 -> [ 10@0 ]  4 -> [ 12@0 ]  5 -> [ 9@0 ]  7 -> [ 15@0 ]  ], output requests = [ 9 -> [ 5@0 ]  10 -> [ 1@0 ]  12 -> [ 4@0 ]  15 -> [ 7@0 ]  ].
4 | network_0/router_level3_1/sw_allocator | Input grants = [ 1 -> 10  4 -> 12  5 -> 9  7 -> 15  ], output grants = [ 9 -> 5  10 -> 1  12 -> 4  15 -> 7  ].
4 | network_0/router_level3_1 | Assigning output 15.0 to VC 0 at input 7.0.
4 | network_0/router_level3_1 | Beginning crossbar traversal for flit 3 from input 0.0 to output 15.0.
4 | network_0/router_level3_1 | Beginning crossbar traversal for flit 4 from input 1.0 to output 10.0.
4 | network_0/router_level3_1 | Beginning crossbar traversal for flit 5 from input 3.0 to output 14.0.
4 | network_0/router_level3_1 | Beginning crossbar traversal for flit 6 from input 4.0 to output 9.0.
4 | network_0/router_level3_1 | Beginning crossbar traversal for flit 7 from input 5.0 to output 12.0.
4 | network_0/router_level3_1 | Beginning crossbar traversal for flit 8 from input 6.0 to output 8.0.
4 | network_0/router_level3_1 | Completed switch allocation for VC 0 at input 7 (front: 9).
4 | network_0/router_level3_1 |   Scheduling switch connection from input 7.0 to output 15.0.
4 | network_0/router_level3_1 | Updating lookahead routing information for flit 9.
4 | network_0/router_level3_1 | Completed crossbar traversal for flit 3 from input 0.0 to output 15.0.
4 | network_0/router_level3_1 | Buffering flit 3 at output 15.
4 | network_0/router_level3_1 | Completed crossbar traversal for flit 4 from input 1.0 to output 10.0.
4 | network_0/router_level3_1 | Buffering flit 4 at output 10.
4 | network_0/router_level3_1 | Completed crossbar traversal for flit 5 from input 3.0 to output 14.0.
4 | network_0/router_level3_1 | Buffering flit 5 at output 14.
4 | network_0/router_level3_1 | Completed crossbar traversal for flit 6 from input 4.0 to output 9.0.
4 | network_0/router_level3_1 | Buffering flit 6 at output 9.
4 | network_0/router_level3_1 | Completed crossbar traversal for flit 7 from input 5.0 to output 12.0.
4 | network_0/router_level3_1 | Buffering flit 7 at output 12.
4 | network_0/router_level3_1 | Completed crossbar traversal for flit 8 from input 6.0 to output 8.0.
4 | network_0/router_level3_1 | Buffering flit 8 at output 8.
4 | network_0/router_level3_2 | Beginning crossbar traversal for flit 10 from input 1.0 to output 10.0.
4 | network_0/router_level3_2 | Completed crossbar traversal for flit 10 from input 1.0 to output 10.0.
4 | network_0/router_level3_2 | Buffering flit 10 at output 10.
4 | network_0/router_level3_0 | Sending flit 1 to channel at output 13.
4 | network_0/router_level3_1 | Sending flit 8 to channel at output 8.
4 | network_0/router_level3_1 | Sending flit 6 to channel at output 9.
4 | network_0/router_level3_1 | Sending flit 4 to channel at output 10.
4 | network_0/router_level3_1 | Sending flit 7 to channel at output 12.
4 | network_0/router_level3_1 | Sending flit 5 to channel at output 14.
4 | network_0/router_level3_1 | Sending flit 3 to channel at output 15.
4 | network_0/router_level3_2 | Sending flit 10 to channel at output 10.
5 | network_0/network_0_fchan_20485 | Beginning channel traversal for flit 1 with delay 1.
5 | network_0/network_0_fchan_20488 | Beginning channel traversal for flit 8 with delay 1.
5 | network_0/network_0_fchan_20489 | Beginning channel traversal for flit 6 with delay 1.
5 | network_0/network_0_fchan_20490 | Beginning channel traversal for flit 4 with delay 1.
5 | network_0/network_0_fchan_20492 | Beginning channel traversal for flit 7 with delay 1.
5 | network_0/network_0_fchan_20494 | Beginning channel traversal for flit 5 with delay 1.
5 | network_0/network_0_fchan_20495 | Beginning channel traversal for flit 3 with delay 1.
5 | network_0/network_0_fchan_20498 | Beginning channel traversal for flit 10 with delay 1.
5 | network_0/router_level3_0 | Beginning switch allocation for VC 0 at input 5 (front: 2).
5 | network_0/router_level3_0 |   Requesting output 13.0 (non-spec, pri: 0).
5 | network_0/router_level3_0/sw_allocator | Input requests = [ 0 -> [ 12@0 ]  2 -> [ 8@0 ]  3 -> [ 9@0 11@0 ]  5 -> [ 10@0 13@0 ]  6 -> [ 13@0 14@0 ]  ], output requests = [ 8 -> [ 2@0 ]  9 -> [ 3@0 ]  10 -> [ 5@0 ]  11 -> [ 3@0 ]  12 -> [ 0@0 ]  13 -> [ 5@0 6@0 ]  14 -> [ 6@0 ]  ].
5 | network_0/router_level3_0/sw_allocator | Input grants = [ 0 -> 12  2 -> 8  3 -> 9  5 -> 13  ], output grants = [ 8 -> 2  9 -> 3  12 -> 0  13 -> 5  ].
5 | network_0/router_level3_0 | Assigning output 13.0 to VC 0 at input 5.0.
5 | network_0/router_level3_0 | Completed switch allocation for VC 0 at input 5 (front: 2).
5 | network_0/router_level3_0 |   Scheduling switch connection from input 5.0 to output 13.0.
5 | network_0/router_level3_0 | Updating lookahead routing information for flit 2.
5 | network_0/router_level3_1 | Beginning crossbar traversal for flit 9 from input 7.0 to output 15.0.
5 | network_0/router_level3_1 | Completed crossbar traversal for flit 9 from input 7.0 to output 15.0.
5 | network_0/router_level3_1 | Buffering flit 9 at output 15.
5 | network_0/network_0_fchan_20485 | Completed channel traversal for flit 1.
5 | network_0/network_0_fchan_20488 | Completed channel traversal for flit 8.
5 | network_0/network_0_fchan_20489 | Completed channel traversal for flit 6.
5 | network_0/network_0_fchan_20490 | Completed channel traversal for flit 4.
5 | network_0/network_0_fchan_20492 | Completed channel traversal for flit 7.
5 | network_0/network_0_fchan_20494 | Completed channel traversal for flit 5.
5 | network_0/network_0_fchan_20495 | Completed channel traversal for flit 3.
5 | network_0/network_0_fchan_20498 | Completed channel traversal for flit 10.
5 | network_0/router_level3_1 | Sending flit 9 to channel at output 15.
6 | network_0/network_0_fchan_20495 | Beginning channel traversal for flit 9 with delay 1.
6 | network_0/router_level2_0 | Received flit 8 from channel at input 1.
6 | network_0/router_level2_1 | Received flit 6 from channel at input 1.
6 | network_0/router_level2_2 | Received flit 4 from channel at input 1.
6 | network_0/router_level2_2 | Received flit 10 from channel at input 2.
6 | network_0/router_level2_4 | Received flit 7 from channel at input 1.
6 | network_0/router_level2_5 | Received flit 1 from channel at input 0.
6 | network_0/router_level2_6 | Received flit 5 from channel at input 1.
6 | network_0/router_level2_7 | Received flit 3 from channel at input 1.
6 | network_0/router_level2_0 | Adding flit 8 to VC 0 at input 1 (state: idle, empty).
6 | network_0/router_level2_0 | Using precomputed lookahead routing information for VC 0 at input 1 (front: 8).
6 | network_0/router_level2_0/buf_1/vc_0 | Changing state from idle to vc_alloc.
6 | network_0/router_level2_0 | Beginning VC allocation for VC 0 at input 1 (front: 8).
6 | network_0/router_level2_0 |   Requesting VC 0 at output 14 (in_pri: 0, out_pri: 0).
6 | network_0/router_level2_0 |   Requesting VC 1 at output 14 (in_pri: 0, out_pri: 0).
6 | network_0/router_level2_0 |   Requesting VC 2 at output 14 (in_pri: 0, out_pri: 0).
6 | network_0/router_level2_0 |   Requesting VC 3 at output 14 (in_pri: 0, out_pri: 0).
6 | network_0/router_level2_0/vc_allocator | Input requests = [ 4 -> [ 56@0 57@0 58@0 59@0 ]  8 -> [ 52@0 53@0 54@0 55@0 ]  ], output requests = [ 52 -> [ 8@0 ]  53 -> [ 8@0 ]  54 -> [ 8@0 ]  55 -> [ 8@0 ]  56 -> [ 4@0 ]  57 -> [ 4@0 ]  58 -> [ 4@0 ]  59 -> [ 4@0 ]  ].
6 | network_0/router_level2_0/vc_allocator | Input grants = [ 4 -> 56  8 -> 52  ], output grants = [ 52 -> 8  56 -> 4  ].
6 | network_0/router_level2_0 | Assigning VC 0 at output 14 to VC 0 at input 1.
6 | network_0/router_level2_0 | Completed VC allocation for VC 0 at input 1 (front: 8).
6 | network_0/router_level2_0 |   Acquiring assigned VC 0 at output 14.
6 | network_0/router_level2_0/buf_1/vc_0 | Changing state from vc_alloc to active.
6 | network_0/router_level2_1 | Adding flit 6 to VC 0 at input 1 (state: idle, empty).
6 | network_0/router_level2_1 | Using precomputed lookahead routing information for VC 0 at input 1 (front: 6).
6 | network_0/router_level2_1/buf_1/vc_0 | Changing state from idle to vc_alloc.
6 | network_0/router_level2_1 | Beginning VC allocation for VC 0 at input 1 (front: 6).
6 | network_0/router_level2_1 |   Requesting VC 0 at output 9 (in_pri: 0, out_pri: 0).
6 | network_0/router_level2_1 |   Requesting VC 1 at output 9 (in_pri: 0, out_pri: 0).
6 | network_0/router_level2_1 |   Requesting VC 2 at output 9 (in_pri: 0, out_pri: 0).
6 | network_0/router_level2_1 |   Requesting VC 3 at output 9 (in_pri: 0, out_pri: 0).
6 | network_0/router_level2_1/vc_allocator | Input requests = [ 4 -> [ 36@0 37@0 38@0 39@0 ]  8 -> [ 52@0 53@0 54@0 55@0 ]  20 -> [ 48@0 49@0 50@0 51@0 ]  24 -> [ 48@0 49@0 50@0 51@0 ]  ], output requests = [ 36 -> [ 4@0 ]  37 -> [ 4@0 ]  38 -> [ 4@0 ]  39 -> [ 4@0 ]  48 -> [ 20@0 24@0 ]  49 -> [ 20@0 24@0 ]  50 -> [ 20@0 24@0 ]  51 -> [ 20@0 24@0 ]  52 -> [ 8@0 ]  53 -> [ 8@0 ]  54 -> [ 8@0 ]  55 -> [ 8@0 ]  ].
6 | network_0/router_level2_1/vc_allocator | Input grants = [ 4 -> 36  8 -> 52  20 -> 48  ], output grants = [ 36 -> 4  48 -> 20  52 -> 8  ].
6 | network_0/router_level2_1 | Assigning VC 0 at output 9 to VC 0 at input 1.
6 | network_0/router_level2_1 | Completed VC allocation for VC 0 at input 1 (front: 6).
6 | network_0/router_level2_1 |   Acquiring assigned VC 0 at output 9.
6 | network_0/router_level2_1/buf_1/vc_0 | Changing state from vc_alloc to active.
6 | network_0/router_level2_2 | Adding flit 4 to VC 0 at input 1 (state: idle, empty).
6 | network_0/router_level2_2 | Using precomputed lookahead routing information for VC 0 at input 1 (front: 4).
6 | network_0/router_level2_2/buf_1/vc_0 | Changing state from idle to vc_alloc.
6 | network_0/router_level2_2 | Adding flit 10 to VC 0 at input 2 (state: idle, empty).
6 | network_0/router_level2_2 | Using precomputed lookahead routing information for VC 0 at input 2 (front: 10).
6 | network_0/router_level2_2/buf_2/vc_0 | Changing state from idle to vc_alloc.
6 | network_0/router_level2_2 | Beginning VC allocation for VC 0 at input 1 (front: 4).
6 | network_0/router_level2_2 |   Requesting VC 0 at output 10 (in_pri: 0, out_pri: 0).
6 | network_0/router_level2_2 |   Requesting VC 1 at output 10 (in_pri: 0, out_pri: 0).
6 | network_0/router_level2_2 |   Requesting VC 2 at output 10 (in_pri: 0, out_pri: 0).
6 | network_0/router_level2_2 |   Requesting VC 3 at output 10 (in_pri: 0, out_pri: 0).
6 | network_0/router_level2_2 | Beginning VC allocation for VC 0 at input 2 (front: 10).
6 | network_0/router_level2_2 |   Requesting VC 0 at output 12 (in_pri: 0, out_pri: 0).
6 | network_0/router_level2_2 |   Requesting VC 1 at output 12 (in_pri: 0, out_pri: 0).
6 | network_0/router_level2_2 |   Requesting VC 2 at output 12 (in_pri: 0, out_pri: 0).
6 | network_0/router_level2_2 |   Requesting VC 3 at output 12 (in_pri: 0, out_pri: 0).
6 | network_0/router_level2_2/vc_allocator | Input requests = [ 4 -> [ 40@0 41@0 42@0 43@0 ]  8 -> [ 48@0 49@0 50@0 51@0 ]  16 -> [ 48@0 49@0 50@0 51@0 ]  20 -> [ 32@0 33@0 34@0 35@0 ]  24 -> [ 52@0 53@0 54@0 55@0 ]  ], output requests = [ 32 -> [ 20@0 ]  33 -> [ 20@0 ]  34 -> [ 20@0 ]  35 -> [ 20@0 ]  40 -> [ 4@0 ]  41 -> [ 4@0 ]  42 -> [ 4@0 ]  43 -> [ 4@0 ]  48 -> [ 8@0 16@0 ]  49 -> [ 8@0 16@0 ]  50 -> [ 8@0 16@0 ]  51 -> [ 8@0 16@0 ]  52 -> [ 24@0 ]  53 -> [ 24@0 ]  54 -> [ 24@0 ]  55 -> [ 24@0 ]  ].
6 | network_0/router_level2_2/vc_allocator | Input grants = [ 4 -> 40  8 -> 48  20 -> 32  24 -> 52  ], output grants = [ 32 -> 20  40 -> 4  48 -> 8  52 -> 24  ].
6 | network_0/router_level2_2 | Assigning VC 0 at output 10 to VC 0 at input 1.
6 | network_0/router_level2_2 | Assigning VC 0 at output 12 to VC 0 at input 2.
6 | network_0/router_level2_2 | Completed VC allocation for VC 0 at input 1 (front: 4).
6 | network_0/router_level2_2 |   Acquiring assigned VC 0 at output 10.
6 | network_0/router_level2_2/buf_1/vc_0 | Changing state from vc_alloc to active.
6 | network_0/router_level2_2 | Completed VC allocation for VC 0 at input 2 (front: 10).
6 | network_0/router_level2_2 |   Acquiring assigned VC 0 at output 12.
6 | network_0/router_level2_2/buf_2/vc_0 | Changing state from vc_alloc to active.
6 | network_0/router_level2_4 | Adding flit 7 to VC 0 at input 1 (state: idle, empty).
6 | network_0/router_level2_4 | Using precomputed lookahead routing information for VC 0 at input 1 (front: 7).
6 | network_0/router_level2_4/buf_1/vc_0 | Changing state from idle to vc_alloc.
6 | network_0/router_level2_4 | Beginning VC allocation for VC 0 at input 1 (front: 7).
6 | network_0/router_level2_4 |   Requesting VC 0 at output 14 (in_pri: 0, out_pri: 0).
6 | network_0/router_level2_4 |   Requesting VC 1 at output 14 (in_pri: 0, out_pri: 0).
6 | network_0/router_level2_4 |   Requesting VC 2 at output 14 (in_pri: 0, out_pri: 0).
6 | network_0/router_level2_4 |   Requesting VC 3 at output 14 (in_pri: 0, out_pri: 0).
6 | network_0/router_level2_4/vc_allocator | Input requests = [ 4 -> [ 56@0 57@0 58@0 59@0 ]  8 -> [ 44@0 45@0 46@0 47@0 ]  12 -> [ 32@0 33@0 34@0 35@0 ]  16 -> [ 44@0 45@0 46@0 47@0 ]  20 -> [ 32@0 33@0 34@0 35@0 ]  24 -> [ 32@0 33@0 34@0 35@0 ]  ], output requests = [ 32 -> [ 12@0 20@0 24@0 ]  33 -> [ 12@0 20@0 24@0 ]  34 -> [ 12@0 20@0 24@0 ]  35 -> [ 12@0 20@0 24@0 ]  44 -> [ 8@0 16@0 ]  45 -> [ 8@0 16@0 ]  46 -> [ 8@0 16@0 ]  47 -> [ 8@0 16@0 ]  56 -> [ 4@0 ]  57 -> [ 4@0 ]  58 -> [ 4@0 ]  59 -> [ 4@0 ]  ].
6 | network_0/router_level2_4/vc_allocator | Input grants = [ 4 -> 56  8 -> 44  12 -> 32  ], output grants = [ 32 -> 12  44 -> 8  56 -> 4  ].
6 | network_0/router_level2_4 | Assigning VC 0 at output 14 to VC 0 at input 1.
6 | network_0/router_level2_4 | Completed VC allocation for VC 0 at input 1 (front: 7).
6 | network_0/router_level2_4 |   Acquiring assigned VC 0 at output 14.
6 | network_0/router_level2_4/buf_1/vc_0 | Changing state from vc_alloc to active.
6 | network_0/router_level2_5 | Adding flit 1 to VC 0 at input 0 (state: idle, empty).
6 | network_0/router_level2_5 | Using precomputed lookahead routing information for VC 0 at input 0 (front: 1).
6 | network_0/router_level2_5/buf_0/vc_0 | Changing state from idle to vc_alloc.
6 | network_0/router_level2_5 | Beginning VC allocation for VC 0 at input 0 (front: 1).
6 | network_0/router_level2_5 |   Requesting VC 0 at output 11 (in_pri: 0, out_pri: 0).
6 | network_0/router_level2_5 |   Requesting VC 1 at output 11 (in_pri: 0, out_pri: 0).
6 | network_0/router_level2_5 |   Requesting VC 2 at output 11 (in_pri: 0, out_pri: 0).
6 | network_0/router_level2_5 |   Requesting VC 3 at output 11 (in_pri: 0, out_pri: 0).
6 | network_0/router_level2_5/vc_allocator | Input requests = [ 0 -> [ 44@0 45@0 46@0 47@0 ]  8 -> [ 36@0 37@0 38@0 39@0 ]  12 -> [ 60@0 61@0 62@0 63@0 ]  28 -> [ 60@0 61@0 62@0 63@0 ]  ], output requests = [ 36 -> [ 8@0 ]  37 -> [ 8@0 ]  38 -> [ 8@0 ]  39 -> [ 8@0 ]  44 -> [ 0@0 ]  45 -> [ 0@0 ]  46 -> [ 0@0 ]  47 -> [ 0@0 ]  60 -> [ 12@0 28@0 ]  61 -> [ 12@0 28@0 ]  62 -> [ 12@0 28@0 ]  63 -> [ 12@0 28@0 ]  ].
6 | network_0/router_level2_5/vc_allocator | Input grants = [ 0 -> 44  8 -> 36  12 -> 60  ], output grants = [ 36 -> 8  44 -> 0  60 -> 12  ].
6 | network_0/router_level2_5 | Assigning VC 0 at output 11 to VC 0 at input 0.
6 | network_0/router_level2_5 | Completed VC allocation for VC 0 at input 0 (front: 1).
6 | network_0/router_level2_5 |   Acquiring assigned VC 0 at output 11.
6 | network_0/router_level2_5/buf_0/vc_0 | Changing state from vc_alloc to active.
6 | network_0/router_level2_6 | Adding flit 5 to VC 0 at input 1 (state: idle, empty).
6 | network_0/router_level2_6 | Using precomputed lookahead routing information for VC 0 at input 1 (front: 5).
6 | network_0/router_level2_6/buf_1/vc_0 | Changing state from idle to vc_alloc.
6 | network_0/router_level2_6 | Beginning VC allocation for VC 0 at input 1 (front: 5).
6 | network_0/router_level2_6 |   Requesting VC 0 at output 11 (in_pri: 0, out_pri: 0).
6 | network_0/router_level2_6 |   Requesting VC 1 at output 11 (in_pri: 0, out_pri: 0).
6 | network_0/router_level2_6 |   Requesting VC 2 at output 11 (in_pri: 0, out_pri: 0).
6 | network_0/router_level2_6 |   Requesting VC 3 at output 11 (in_pri: 0, out_pri: 0).
6 | network_0/router_level2_6/vc_allocator | Input requests = [ 4 -> [ 44@0 45@0 46@0 47@0 ]  12 -> [ 36@0 37@0 38@0 39@0 ]  20 -> [ 36@0 37@0 38@0 39@0 ]  ], output requests = [ 36 -> [ 12@0 20@0 ]  37 -> [ 12@0 20@0 ]  38 -> [ 12@0 20@0 ]  39 -> [ 12@0 20@0 ]  44 -> [ 4@0 ]  45 -> [ 4@0 ]  46 -> [ 4@0 ]  47 -> [ 4@0 ]  ].
6 | network_0/router_level2_6/vc_allocator | Input grants = [ 4 -> 44  12 -> 36  ], output grants = [ 36 -> 12  44 -> 4  ].
6 | network_0/router_level2_6 | Assigning VC 0 at output 11 to VC 0 at input 1.
6 | network_0/router_level2_6 | Completed VC allocation for VC 0 at input 1 (front: 5).
6 | network_0/router_level2_6 |   Acquiring assigned VC 0 at output 11.
6 | network_0/router_level2_6/buf_1/vc_0 | Changing state from vc_alloc to active.
6 | network_0/router_level2_7 | Adding flit 3 to VC 0 at input 1 (state: idle, empty).
6 | network_0/router_level2_7 | Using precomputed lookahead routing information for VC 0 at input 1 (front: 3).
6 | network_0/router_level2_7/buf_1/vc_0 | Changing state from idle to vc_alloc.
6 | network_0/router_level2_7 | Beginning VC allocation for VC 0 at input 1 (front: 3).
6 | network_0/router_level2_7 |   Requesting VC 0 at output 15 (in_pri: 0, out_pri: 0).
6 | network_0/router_level2_7 |   Requesting VC 1 at output 15 (in_pri: 0, out_pri: 0).
6 | network_0/router_level2_7 |   Requesting VC 2 at output 15 (in_pri: 0, out_pri: 0).
6 | network_0/router_level2_7 |   Requesting VC 3 at output 15 (in_pri: 0, out_pri: 0).
6 | network_0/router_level2_7/vc_allocator | Input requests = [ 0 -> [ 36@0 37@0 38@0 39@0 ]  4 -> [ 60@0 61@0 62@0 63@0 ]  20 -> [ 32@0 33@0 34@0 35@0 ]  24 -> [ 44@0 45@0 46@0 47@0 ]  28 -> [ 60@0 61@0 62@0 63@0 ]  ], output requests = [ 32 -> [ 20@0 ]  33 -> [ 20@0 ]  34 -> [ 20@0 ]  35 -> [ 20@0 ]  36 -> [ 0@0 ]  37 -> [ 0@0 ]  38 -> [ 0@0 ]  39 -> [ 0@0 ]  44 -> [ 24@0 ]  45 -> [ 24@0 ]  46 -> [ 24@0 ]  47 -> [ 24@0 ]  60 -> [ 4@0 28@0 ]  61 -> [ 4@0 28@0 ]  62 -> [ 4@0 28@0 ]  63 -> [ 4@0 28@0 ]  ].
6 | network_0/router_level2_7/vc_allocator | Input grants = [ 0 -> 36  4 -> 60  20 -> 32  24 -> 44  ], output grants = [ 32 -> 20  36 -> 0  44 -> 24  60 -> 4  ].
6 | network_0/router_level2_7 | Assigning VC 0 at output 15 to VC 0 at input 1.
6 | network_0/router_level2_7 | Completed VC allocation for VC 0 at input 1 (front: 3).
6 | network_0/router_level2_7 |   Acquiring assigned VC 0 at output 15.
6 | network_0/router_level2_7/buf_1/vc_0 | Changing state from vc_alloc to active.
6 | network_0/router_level3_0 | Beginning crossbar traversal for flit 2 from input 5.0 to output 13.0.
6 | network_0/router_level3_0 | Completed crossbar traversal for flit 2 from input 5.0 to output 13.0.
6 | network_0/router_level3_0 | Buffering flit 2 at output 13.
6 | network_0/network_0_fchan_20495 | Completed channel traversal for flit 9.
6 | network_0/router_level3_0 | Sending flit 2 to channel at output 13.
7 | network_0/network_0_fchan_20485 | Beginning channel traversal for flit 2 with delay 1.
7 | network_0/router_level2_7 | Received flit 9 from channel at input 1.
7 | network_0/router_level2_0 | Beginning switch allocation for VC 0 at input 1 (front: 8).
7 | network_0/router_level2_0 |   Requesting output 14.0 (non-spec, pri: 0).
7 | network_0/router_level2_0/sw_allocator | Input requests = [ 1 -> [ 14@0 ]  2 -> [ 13@0 ]  ], output requests = [ 13 -> [ 2@0 ]  14 -> [ 1@0 ]  ].
7 | network_0/router_level2_0/sw_allocator | Input grants = [ 1 -> 14  2 -> 13  ], output grants = [ 13 -> 2  14 -> 1  ].
7 | network_0/router_level2_0 | Assigning output 14.0 to VC 0 at input 1.0.
7 | network_0/router_level2_0 | Completed switch allocation for VC 0 at input 1 (front: 8).
7 | network_0/router_level2_0 |   Scheduling switch connection from input 1.0 to output 14.0.
7 | network_0/router_level2_0 | Updating lookahead routing information for flit 8.
7 | network_0/router_level2_1 | Beginning switch allocation for VC 0 at input 1 (front: 6).
7 | network_0/router_level2_1 |   Requesting output 9.0 (non-spec, pri: 0).
7 | network_0/router_level2_1/sw_allocator | Input requests = [ 1 -> [ 9@0 ]  2 -> [ 13@0 ]  5 -> [ 12@0 ]  ], output requests = [ 9 -> [ 1@0 ]  12 -> [ 5@0 ]  13 -> [ 2@0 ]  ].
7 | network_0/router_level2_1/sw_allocator | Input grants = [ 1 -> 9  2 -> 13  5 -> 12  ], output grants = [ 9 -> 1  12 -> 5  13 -> 2  ].
7 | network_0/router_level2_1 | Assigning output 9.0 to VC 0 at input 1.0.
7 | network_0/router_level2_1 | Completed switch allocation for VC 0 at input 1 (front: 6).
7 | network_0/router_level2_1 |   Scheduling switch connection from input 1.0 to output 9.0.
7 | network_0/router_level2_1 | Updating lookahead routing information for flit 6.
7 | network_0/router_level2_2 | Beginning switch allocation for VC 0 at input 1 (front: 4).
7 | network_0/router_level2_2 |   Requesting output 10.0 (non-spec, pri: 0).
7 | network_0/router_level2_2 | Beginning switch allocation for VC 0 at input 2 (front: 10).
7 | network_0/router_level2_2 |   Requesting output 12.0 (non-spec, pri: 0).
7 | network_0/router_level2_2/sw_allocator | Input requests = [ 1 -> [ 10@0 ]  2 -> [ 12@0 ]  5 -> [ 8@0 ]  6 -> [ 13@0 ]  ], output requests = [ 8 -> [ 5@0 ]  10 -> [ 1@0 ]  12 -> [ 2@0 ]  13 -> [ 6@0 ]  ].
7 | network_0/router_level2_2/sw_allocator | Input grants = [ 1 -> 10  2 -> 12  5 -> 8  6 -> 13  ], output grants = [ 8 -> 5  10 -> 1  12 -> 2  13 -> 6  ].
7 | network_0/router_level2_2 | Assigning output 10.0 to VC 0 at input 1.0.
7 | network_0/router_level2_2 | Assigning output 12.0 to VC 0 at input 2.0.
7 | network_0/router_level2_2 | Completed switch allocation for VC 0 at input 1 (front: 4).
7 | network_0/router_level2_2 |   Scheduling switch connection from input 1.0 to output 10.0.
7 | network_0/router_level2_2 | Updating lookahead routing information for flit 4.
7 | network_0/router_level2_2 | Completed switch allocation for VC 0 at input 2 (front: 10).
7 | network_0/router_level2_2 |   Scheduling switch connection from input 2.0 to output 12.0.
7 | network_0/router_level2_2 | Updating lookahead routing information for flit 10.
7 | network_0/router_level2_4 | Beginning switch allocation for VC 0 at input 1 (front: 7).
7 | network_0/router_level2_4 |   Requesting output 14.0 (non-spec, pri: 0).
7 | network_0/router_level2_4/sw_allocator | Input requests = [ 1 -> [ 14@0 ]  2 -> [ 11@0 ]  3 -> [ 8@0 ]  ], output requests = [ 8 -> [ 3@0 ]  11 -> [ 2@0 ]  14 -> [ 1@0 ]  ].
7 | network_0/router_level2_4/sw_allocator | Input grants = [ 1 -> 14  2 -> 11  3 -> 8  ], output grants = [ 8 -> 3  11 -> 2  14 -> 1  ].
7 | network_0/router_level2_4 | Assigning output 14.0 to VC 0 at input 1.0.
7 | network_0/router_level2_4 | Completed switch allocation for VC 0 at input 1 (front: 7).
7 | network_0/router_level2_4 |   Scheduling switch connection from input 1.0 to output 14.0.
7 | network_0/router_level2_4 | Updating lookahead routing information for flit 7.
7 | network_0/router_level2_5 | Beginning switch allocation for VC 0 at input 0 (front: 1).
7 | network_0/router_level2_5 |   Requesting output 11.0 (non-spec, pri: 0).
7 | network_0/router_level2_5/sw_allocator | Input requests = [ 0 -> [ 11@0 ]  2 -> [ 9@0 ]  3 -> [ 15@0 ]  ], output requests = [ 9 -> [ 2@0 ]  11 -> [ 0@0 ]  15 -> [ 3@0 ]  ].
7 | network_0/router_level2_5/sw_allocator | Input grants = [ 0 -> 11  2 -> 9  3 -> 15  ], output grants = [ 9 -> 2  11 -> 0  15 -> 3  ].
7 | network_0/router_level2_5 | Assigning output 11.0 to VC 0 at input 0.0.
7 | network_0/router_level2_5 | Completed switch allocation for VC 0 at input 0 (front: 1).
7 | network_0/router_level2_5 |   Scheduling switch connection from input 0.0 to output 11.0.
7 | network_0/router_level2_5 | Updating lookahead routing information for flit 1.
7 | network_0/router_level2_6 | Beginning switch allocation for VC 0 at input 1 (front: 5).
7 | network_0/router_level2_6 |   Requesting output 11.0 (non-spec, pri: 0).
7 | network_0/router_level2_6/sw_allocator | Input requests = [ 1 -> [ 11@0 ]  3 -> [ 9@0 ]  ], output requests = [ 9 -> [ 3@0 ]  11 -> [ 1@0 ]  ].
7 | network_0/router_level2_6/sw_allocator | Input grants = [ 1 -> 11  3 -> 9  ], output grants = [ 9 -> 3  11 -> 1  ].
7 | network_0/router_level2_6 | Assigning output 11.0 to VC 0 at input 1.0.
7 | network_0/router_level2_6 | Completed switch allocation for VC 0 at input 1 (front: 5).
7 | network_0/router_level2_6 |   Scheduling switch connection from input 1.0 to output 11.0.
7 | network_0/router_level2_6 | Updating lookahead routing information for flit 5.
7 | network_0/router_level2_7 | Adding flit 9 to VC 1 at input 1 (state: idle, empty).
7 | network_0/router_level2_7 | Using precomputed lookahead routing information for VC 1 at input 1 (front: 9).
7 | network_0/router_level2_7/buf_1/vc_1 | Changing state from idle to vc_alloc.
7 | network_0/router_level2_7 | Beginning VC allocation for VC 1 at input 1 (front: 9).
7 | network_0/router_level2_7 |   VC 0 at output 11 is in use by VC 0 at input 6 (front flit: 34).
7 | network_0/router_level2_7 |   Requesting VC 1 at output 11 (in_pri: 0, out_pri: 0).
7 | network_0/router_level2_7 |   Requesting VC 2 at output 11 (in_pri: 0, out_pri: 0).
7 | network_0/router_level2_7 |   Requesting VC 3 at output 11 (in_pri: 0, out_pri: 0).
7 | network_0/router_level2_7/vc_allocator | Input requests = [ 5 -> [ 45@0 46@0 47@0 ]  16 -> [ 61@0 62@0 63@0 ]  21 -> [ 33@0 34@0 35@0 ]  28 -> [ 61@0 62@0 63@0 ]  ], output requests = [ 33 -> [ 21@0 ]  34 -> [ 21@0 ]  35 -> [ 21@0 ]  45 -> [ 5@0 ]  46 -> [ 5@0 ]  47 -> [ 5@0 ]  61 -> [ 16@0 28@0 ]  62 -> [ 16@0 28@0 ]  63 -> [ 16@0 28@0 ]  ].
7 | network_0/router_level2_7/vc_allocator | Input grants = [ 5 -> 45  16 -> 61  21 -> 33  ], output grants = [ 33 -> 21  45 -> 5  61 -> 16  ].
7 | network_0/router_level2_7 | Assigning VC 1 at output 11 to VC 1 at input 1.
7 | network_0/router_level2_7 | Beginning switch allocation for VC 0 at input 1 (front: 3).
7 | network_0/router_level2_7 |   Requesting output 15.0 (non-spec, pri: 0).
7 | network_0/router_level2_7/sw_allocator | Input requests = [ 0 -> [ 9@0 ]  1 -> [ 15@0 ]  5 -> [ 8@0 ]  6 -> [ 11@0 ]  ], output requests = [ 8 -> [ 5@0 ]  9 -> [ 0@0 ]  11 -> [ 6@0 ]  15 -> [ 1@0 ]  ].
7 | network_0/router_level2_7/sw_allocator | Input grants = [ 0 -> 9  1 -> 15  5 -> 8  6 -> 11  ], output grants = [ 8 -> 5  9 -> 0  11 -> 6  15 -> 1  ].
7 | network_0/router_level2_7 | Assigning output 15.0 to VC 0 at input 1.0.
7 | network_0/router_level2_7 | Completed VC allocation for VC 1 at input 1 (front: 9).
7 | network_0/router_level2_7 |   Acquiring assigned VC 1 at output 11.
7 | network_0/router_level2_7/buf_1/vc_1 | Changing state from vc_alloc to active.
7 | network_0/router_level2_7 | Completed switch allocation for VC 0 at input 1 (front: 3).
7 | network_0/router_level2_7 |   Scheduling switch connection from input 1.0 to output 15.0.
7 | network_0/router_level2_7 | Updating lookahead routing information for flit 3.
7 | network_0/network_0_fchan_20485 | Completed channel traversal for flit 2.
8 | network_0/router_level2_5 | Received flit 2 from channel at input 0.
8 | network_0/router_level2_0 | Beginning crossbar traversal for flit 8 from input 1.0 to output 14.0.
8 | network_0/router_level2_0 | Completed crossbar traversal for flit 8 from input 1.0 to output 14.0.
8 | network_0/router_level2_0 | Buffering flit 8 at output 14.
8 | network_0/router_level2_1 | Beginning crossbar traversal for flit 6 from input 1.0 to output 9.0.
8 | network_0/router_level2_1 | Completed crossbar traversal for flit 6 from input 1.0 to output 9.0.
8 | network_0/router_level2_1 | Buffering flit 6 at output 9.
8 | network_0/router_level2_2 | Beginning crossbar traversal for flit 4 from input 1.0 to output 10.0.
8 | network_0/router_level2_2 | Beginning crossbar traversal for flit 10 from input 2.0 to output 12.0.
8 | network_0/router_level2_2 | Completed crossbar traversal for flit 4 from input 1.0 to output 10.0.
8 | network_0/router_level2_2 | Buffering flit 4 at output 10.
8 | network_0/router_level2_2 | Completed crossbar traversal for flit 10 from input 2.0 to output 12.0.
8 | network_0/router_level2_2 | Buffering flit 10 at output 12.
8 | network_0/router_level2_4 | Beginning crossbar traversal for flit 7 from input 1.0 to output 14.0.
8 | network_0/router_level2_4 | Completed crossbar traversal for flit 7 from input 1.0 to output 14.0.
8 | network_0/router_level2_4 | Buffering flit 7 at output 14.
8 | network_0/router_level2_5 | Adding flit 2 to VC 1 at input 0 (state: idle, empty).
8 | network_0/router_level2_5 | Using precomputed lookahead routing information for VC 1 at input 0 (front: 2).
8 | network_0/router_level2_5/buf_0/vc_1 | Changing state from idle to vc_alloc.
8 | network_0/router_level2_5 | Beginning VC allocation for VC 1 at input 0 (front: 2).
8 | network_0/router_level2_5 |   Requesting VC 0 at output 11 (in_pri: 0, out_pri: 0).
8 | network_0/router_level2_5 |   Requesting VC 1 at output 11 (in_pri: 0, out_pri: 0).
8 | network_0/router_level2_5 |   Requesting VC 2 at output 11 (in_pri: 0, out_pri: 0).
8 | network_0/router_level2_5 |   Requesting VC 3 at output 11 (in_pri: 0, out_pri: 0).
8 | network_0/router_level2_5/vc_allocator | Input requests = [ 1 -> [ 44@0 45@0 46@0 47@0 ]  4 -> [ 36@0 38@0 39@0 ]  ], output requests = [ 36 -> [ 4@0 ]  38 -> [ 4@0 ]  39 -> [ 4@0 ]  44 -> [ 1@0 ]  45 -> [ 1@0 ]  46 -> [ 1@0 ]  47 -> [ 1@0 ]  ].
8 | network_0/router_level2_5/vc_allocator | Input grants = [ 1 -> 44  4 -> 36  ], output grants = [ 36 -> 4  44 -> 1  ].
8 | network_0/router_level2_5 | Assigning VC 0 at output 11 to VC 1 at input 0.
8 | network_0/router_level2_5 | Beginning crossbar traversal for flit 1 from input 0.0 to output 11.0.
8 | network_0/router_level2_5 | Completed VC allocation for VC 1 at input 0 (front: 2).
8 | network_0/router_level2_5 |   Acquiring assigned VC 0 at output 11.
8 | network_0/router_level2_5/buf_0/vc_1 | Changing state from vc_alloc to active.
8 | network_0/router_level2_5 | Completed crossbar traversal for flit 1 from input 0.0 to output 11.0.
8 | network_0/router_level2_5 | Buffering flit 1 at output 11.
8 | network_0/router_level2_6 | Beginning crossbar traversal for flit 5 from input 1.0 to output 11.0.
8 | network_0/router_level2_6 | Completed crossbar traversal for flit 5 from input 1.0 to output 11.0.
8 | network_0/router_level2_6 | Buffering flit 5 at output 11.
8 | network_0/router_level2_7 | Beginning switch allocation for VC 1 at input 1 (front: 9).
8 | network_0/router_level2_7 |   Requesting output 11.0 (non-spec, pri: 0).
8 | network_0/router_level2_7/sw_allocator | Input requests = [ 1 -> [ 11@0 ]  4 -> [ 15@0 ]  5 -> [ 8@0 ]  ], output requests = [ 8 -> [ 5@0 ]  11 -> [ 1@0 ]  15 -> [ 4@0 ]  ].
8 | network_0/router_level2_7/sw_allocator | Input grants = [ 1 -> 11  4 -> 15  5 -> 8  ], output grants = [ 8 -> 5  11 -> 1  15 -> 4  ].
8 | network_0/router_level2_7 | Assigning output 11.0 to VC 1 at input 1.0.
8 | network_0/router_level2_7 | Beginning crossbar traversal for flit 3 from input 1.0 to output 15.0.
8 | network_0/router_level2_7 | Completed switch allocation for VC 1 at input 1 (front: 9).
8 | network_0/router_level2_7 |   Scheduling switch connection from input 1.0 to output 11.0.
8 | network_0/router_level2_7 | Updating lookahead routing information for flit 9.
8 | network_0/router_level2_7 | Completed crossbar traversal for flit 3 from input 1.0 to output 15.0.
8 | network_0/router_level2_7 | Buffering flit 3 at output 15.
8 | network_0/router_level2_0 | Sending flit 8 to channel at output 14.
8 | network_0/router_level2_1 | Sending flit 6 to channel at output 9.
8 | network_0/router_level2_2 | Sending flit 4 to channel at output 10.
8 | network_0/router_level2_2 | Sending flit 10 to channel at output 12.
8 | network_0/router_level2_4 | Sending flit 7 to channel at output 14.
8 | network_0/router_level2_5 | Sending flit 1 to channel at output 11.
8 | network_0/router_level2_6 | Sending flit 5 to channel at output 11.
8 | network_0/router_level2_7 | Sending flit 3 to channel at output 15.
9 | network_0/network_0_fchan_12294 | Beginning channel traversal for flit 8 with delay 1.
9 | network_0/network_0_fchan_12297 | Beginning channel traversal for flit 6 with delay 1.
9 | network_0/network_0_fchan_12306 | Beginning channel traversal for flit 4 with delay 1.
9 | network_0/network_0_fchan_12308 | Beginning channel traversal for flit 10 with delay 1.
9 | network_0/network_0_fchan_12326 | Beginning channel traversal for flit 7 with delay 1.
9 | network_0/network_0_fchan_12331 | Beginning channel traversal for flit 1 with delay 1.
9 | network_0/network_0_fchan_12339 | Beginning channel traversal for flit 5 with delay 1.
9 | network_0/network_0_fchan_12351 | Beginning channel traversal for flit 3 with delay 1.
9 | network_0/router_level2_5 | Beginning switch allocation for VC 1 at input 0 (front: 2).
9 | network_0/router_level2_5 |   Requesting output 11.0 (non-spec, pri: 0).
9 | network_0/router_level2_5/sw_allocator | Input requests = [ 0 -> [ 11@0 ]  1 -> [ 9@0 ]  ], output requests = [ 9 -> [ 1@0 ]  11 -> [ 0@0 ]  ].
9 | network_0/router_level2_5/sw_allocator | Input grants = [ 0 -> 11  1 -> 9  ], output grants = [ 9 -> 1  11 -> 0  ].
9 | network_0/router_level2_5 | Assigning output 11.0 to VC 1 at input 0.0.
9 | network_0/router_level2_5 | Completed switch allocation for VC 1 at input 0 (front: 2).
9 | network_0/router_level2_5 |   Scheduling switch connection from input 0.0 to output 11.0.
9 | network_0/router_level2_5 | Updating lookahead routing information for flit 2.
9 | network_0/router_level2_7 | Beginning crossbar traversal for flit 9 from input 1.0 to output 11.0.
9 | network_0/router_level2_7 | Completed crossbar traversal for flit 9 from input 1.0 to output 11.0.
9 | network_0/router_level2_7 | Buffering flit 9 at output 11.
9 | network_0/network_0_fchan_12294 | Completed channel traversal for flit 8.
9 | network_0/network_0_fchan_12297 | Completed channel traversal for flit 6.
9 | network_0/network_0_fchan_12306 | Completed channel traversal for flit 4.
9 | network_0/network_0_fchan_12308 | Completed channel traversal for flit 10.
9 | network_0/network_0_fchan_12326 | Completed channel traversal for flit 7.
9 | network_0/network_0_fchan_12331 | Completed channel traversal for flit 1.
9 | network_0/network_0_fchan_12339 | Completed channel traversal for flit 5.
9 | network_0/network_0_fchan_12351 | Completed channel traversal for flit 3.
9 | network_0/router_level2_7 | Sending flit 9 to channel at output 11.
10 | network_0/network_0_fchan_12347 | Beginning channel traversal for flit 9 with delay 1.
10 | network_0/router_level1_9 | Received flit 6 from channel at input 0.
10 | network_0/router_level1_18 | Received flit 4 from channel at input 0.
10 | network_0/router_level1_29 | Received flit 1 from channel at input 0.
10 | network_0/router_level1_30 | Received flit 5 from channel at input 0.
10 | network_0/router_level1_34 | Received flit 10 from channel at input 0.
10 | network_0/router_level1_48 | Received flit 8 from channel at input 0.
10 | network_0/router_level1_52 | Received flit 7 from channel at input 0.
10 | network_0/router_level1_63 | Received flit 3 from channel at input 0.
10 | network_0/router_level1_9 | Adding flit 6 to VC 0 at input 0 (state: idle, empty).
10 | network_0/router_level1_9 | Using precomputed lookahead routing information for VC 0 at input 0 (front: 6).
10 | network_0/router_level1_9/buf_0/vc_0 | Changing state from idle to vc_alloc.
10 | network_0/router_level1_9 | Beginning VC allocation for VC 0 at input 0 (front: 6).
10 | network_0/router_level1_9 |   Requesting VC 0 at output 9 (in_pri: 0, out_pri: 0).
10 | network_0/router_level1_9 |   Requesting VC 1 at output 9 (in_pri: 0, out_pri: 0).
10 | network_0/router_level1_9 |   Requesting VC 2 at output 9 (in_pri: 0, out_pri: 0).
10 | network_0/router_level1_9 |   Requesting VC 3 at output 9 (in_pri: 0, out_pri: 0).
10 | network_0/router_level1_9/vc_allocator | Input requests = [ 0 -> [ 36@0 37@0 38@0 39@0 ]  4 -> [ 32@0 33@0 34@0 35@0 ]  16 -> [ 32@0 33@0 34@0 35@0 ]  20 -> [ 36@0 37@0 38@0 39@0 ]  28 -> [ 36@0 37@0 38@0 39@0 ]  ], output requests = [ 32 -> [ 4@0 16@0 ]  33 -> [ 4@0 16@0 ]  34 -> [ 4@0 16@0 ]  35 -> [ 4@0 16@0 ]  36 -> [ 0@0 20@0 28@0 ]  37 -> [ 0@0 20@0 28@0 ]  38 -> [ 0@0 20@0 28@0 ]  39 -> [ 0@0 20@0 28@0 ]  ].
10 | network_0/router_level1_9/vc_allocator | Input grants = [ 0 -> 36  4 -> 32  ], output grants = [ 32 -> 4  36 -> 0  ].
10 | network_0/router_level1_9 | Assigning VC 0 at output 9 to VC 0 at input 0.
10 | network_0/router_level1_9 | Completed VC allocation for VC 0 at input 0 (front: 6).
10 | network_0/router_level1_9 |   Acquiring assigned VC 0 at output 9.
10 | network_0/router_level1_9/buf_0/vc_0 | Changing state from vc_alloc to active.
10 | network_0/router_level1_18 | Adding flit 4 to VC 0 at input 0 (state: idle, empty).
10 | network_0/router_level1_18 | Using precomputed lookahead routing information for VC 0 at input 0 (front: 4).
10 | network_0/router_level1_18/buf_0/vc_0 | Changing state from idle to vc_alloc.
10 | network_0/router_level1_18 | Beginning VC allocation for VC 0 at input 0 (front: 4).
10 | network_0/router_level1_18 |   Requesting VC 0 at output 8 (in_pri: 0, out_pri: 0).
10 | network_0/router_level1_18 |   Requesting VC 1 at output 8 (in_pri: 0, out_pri: 0).
10 | network_0/router_level1_18 |   Requesting VC 2 at output 8 (in_pri: 0, out_pri: 0).
10 | network_0/router_level1_18 |   Requesting VC 3 at output 8 (in_pri: 0, out_pri: 0).
10 | network_0/router_level1_18/vc_allocator | Input requests = [ 0 -> [ 32@0 33@0 34@0 35@0 ]  16 -> [ 32@0 33@0 34@0 35@0 ]  24 -> [ 36@0 37@0 38@0 39@0 ]  ], output requests = [ 32 -> [ 0@0 16@0 ]  33 -> [ 0@0 16@0 ]  34 -> [ 0@0 16@0 ]  35 -> [ 0@0 16@0 ]  36 -> [ 24@0 ]  37 -> [ 24@0 ]  38 -> [ 24@0 ]  39 -> [ 24@0 ]  ].
10 | network_0/router_level1_18/vc_allocator | Input grants = [ 0 -> 32  24 -> 36  ], output grants = [ 32 -> 0  36 -> 24  ].
10 | network_0/router_level1_18 | Assigning VC 0 at output 8 to VC 0 at input 0.
10 | network_0/router_level1_18 | Completed VC allocation for VC 0 at input 0 (front: 4).
10 | network_0/router_level1_18 |   Acquiring assigned VC 0 at output 8.
10 | network_0/router_level1_18/buf_0/vc_0 | Changing state from vc_alloc to active.
10 | network_0/router_level1_29 | Adding flit 1 to VC 0 at input 0 (state: idle, empty).
10 | network_0/router_level1_29 | Using precomputed lookahead routing information for VC 0 at input 0 (front: 1).
10 | network_0/router_level1_29/buf_0/vc_0 | Changing state from idle to vc_alloc.
10 | network_0/router_level1_29 | Beginning VC allocation for VC 0 at input 0 (front: 1).
10 | network_0/router_level1_29 |   Requesting VC 0 at output 9 (in_pri: 0, out_pri: 0).
10 | network_0/router_level1_29 |   Requesting VC 1 at output 9 (in_pri: 0, out_pri: 0).
10 | network_0/router_level1_29 |   Requesting VC 2 at output 9 (in_pri: 0, out_pri: 0).
10 | network_0/router_level1_29 |   Requesting VC 3 at output 9 (in_pri: 0, out_pri: 0).
10 | network_0/router_level1_29/vc_allocator | Input requests = [ 0 -> [ 36@0 37@0 38@0 39@0 ]  8 -> [ 24@0 25@0 26@0 27@0 ]  20 -> [ 36@0 37@0 38@0 39@0 ]  28 -> [ 36@0 37@0 38@0 39@0 ]  ], output requests = [ 24 -> [ 8@0 ]  25 -> [ 8@0 ]  26 -> [ 8@0 ]  27 -> [ 8@0 ]  36 -> [ 0@0 20@0 28@0 ]  37 -> [ 0@0 20@0 28@0 ]  38 -> [ 0@0 20@0 28@0 ]  39 -> [ 0@0 20@0 28@0 ]  ].
10 | network_0/router_level1_29/vc_allocator | Input grants = [ 0 -> 36  8 -> 24  ], output grants = [ 24 -> 8  36 -> 0  ].
10 | network_0/router_level1_29 | Assigning VC 0 at output 9 to VC 0 at input 0.
10 | network_0/router_level1_29 | Completed VC allocation for VC 0 at input 0 (front: 1).
10 | network_0/router_level1_29 |   Acquiring assigned VC 0 at output 9.
10 | network_0/router_level1_29/buf_0/vc_0 | Changing state from vc_alloc to active.
10 | network_0/router_level1_30 | Adding flit 5 to VC 0 at input 0 (state: idle, empty).
10 | network_0/router_level1_30 | Using precomputed lookahead routing information for VC 0 at input 0 (front: 5).
10 | network_0/router_level1_30/buf_0/vc_0 | Changing state from idle to vc_alloc.
10 | network_0/router_level1_30 | Beginning VC allocation for VC 0 at input 0 (front: 5).
10 | network_0/router_level1_30 |   Requesting VC 0 at output 9 (in_pri: 0, out_pri: 0).
10 | network_0/router_level1_30 |   Requesting VC 1 at output 9 (in_pri: 0, out_pri: 0).
10 | network_0/router_level1_30 |   Requesting VC 2 at output 9 (in_pri: 0, out_pri: 0).
10 | network_0/router_level1_30 |   Requesting VC 3 at output 9 (in_pri: 0, out_pri: 0).
10 | network_0/router_level1_30/vc_allocator | Input requests = [ 0 -> [ 36@0 37@0 38@0 39@0 ]  12 -> [ 32@0 33@0 34@0 35@0 ]  16 -> [ 12@0 13@0 14@0 15@0 ]  20 -> [ 4@0 5@0 6@0 7@0 ]  ], output requests = [ 4 -> [ 20@0 ]  5 -> [ 20@0 ]  6 -> [ 20@0 ]  7 -> [ 20@0 ]  12 -> [ 16@0 ]  13 -> [ 16@0 ]  14 -> [ 16@0 ]  15 -> [ 16@0 ]  32 -> [ 12@0 ]  33 -> [ 12@0 ]  34 -> [ 12@0 ]  35 -> [ 12@0 ]  36 -> [ 0@0 ]  37 -> [ 0@0 ]  38 -> [ 0@0 ]  39 -> [ 0@0 ]  ].
10 | network_0/router_level1_30/vc_allocator | Input grants = [ 0 -> 36  12 -> 32  16 -> 12  20 -> 4  ], output grants = [ 4 -> 20  12 -> 16  32 -> 12  36 -> 0  ].
10 | network_0/router_level1_30 | Assigning VC 0 at output 9 to VC 0 at input 0.
10 | network_0/router_level1_30 | Completed VC allocation for VC 0 at input 0 (front: 5).
10 | network_0/router_level1_30 |   Acquiring assigned VC 0 at output 9.
10 | network_0/router_level1_30/buf_0/vc_0 | Changing state from vc_alloc to active.
10 | network_0/router_level1_34 | Adding flit 10 to VC 0 at input 0 (state: idle, empty).
10 | network_0/router_level1_34 | Using precomputed lookahead routing information for VC 0 at input 0 (front: 10).
10 | network_0/router_level1_34/buf_0/vc_0 | Changing state from idle to vc_alloc.
10 | network_0/router_level1_34 | Beginning VC allocation for VC 0 at input 0 (front: 10).
10 | network_0/router_level1_34 |   Requesting VC 0 at output 8 (in_pri: 0, out_pri: 0).
10 | network_0/router_level1_34 |   Requesting VC 1 at output 8 (in_pri: 0, out_pri: 0).
10 | network_0/router_level1_34 |   Requesting VC 2 at output 8 (in_pri: 0, out_pri: 0).
10 | network_0/router_level1_34 |   Requesting VC 3 at output 8 (in_pri: 0, out_pri: 0).
10 | network_0/router_level1_34/vc_allocator | Input requests = [ 0 -> [ 32@0 33@0 34@0 35@0 ]  28 -> [ 32@0 33@0 34@0 35@0 ]  ], output requests = [ 32 -> [ 0@0 28@0 ]  33 -> [ 0@0 28@0 ]  34 -> [ 0@0 28@0 ]  35 -> [ 0@0 28@0 ]  ].
10 | network_0/router_level1_34/vc_allocator | Input grants = [ 0 -> 32  ], output grants = [ 32 -> 0  ].
10 | network_0/router_level1_34 | Assigning VC 0 at output 8 to VC 0 at input 0.
10 | network_0/router_level1_34 | Completed VC allocation for VC 0 at input 0 (front: 10).
10 | network_0/router_level1_34 |   Acquiring assigned VC 0 at output 8.
10 | network_0/router_level1_34/buf_0/vc_0 | Changing state from vc_alloc to active.
10 | network_0/router_level1_48 | Adding flit 8 to VC 0 at input 0 (state: idle, empty).
10 | network_0/router_level1_48 | Using precomputed lookahead routing information for VC 0 at input 0 (front: 8).
10 | network_0/router_level1_48/buf_0/vc_0 | Changing state from idle to vc_alloc.
10 | network_0/router_level1_48 | Beginning VC allocation for VC 0 at input 0 (front: 8).
10 | network_0/router_level1_48 |   Requesting VC 0 at output 9 (in_pri: 0, out_pri: 0).
10 | network_0/router_level1_48 |   Requesting VC 1 at output 9 (in_pri: 0, out_pri: 0).
10 | network_0/router_level1_48 |   Requesting VC 2 at output 9 (in_pri: 0, out_pri: 0).
10 | network_0/router_level1_48 |   Requesting VC 3 at output 9 (in_pri: 0, out_pri: 0).
10 | network_0/router_level1_48/vc_allocator | Input requests = [ 0 -> [ 36@0 37@0 38@0 39@0 ]  12 -> [ 36@0 37@0 38@0 39@0 ]  24 -> [ 32@0 33@0 34@0 35@0 ]  ], output requests = [ 32 -> [ 24@0 ]  33 -> [ 24@0 ]  34 -> [ 24@0 ]  35 -> [ 24@0 ]  36 -> [ 0@0 12@0 ]  37 -> [ 0@0 12@0 ]  38 -> [ 0@0 12@0 ]  39 -> [ 0@0 12@0 ]  ].
10 | network_0/router_level1_48/vc_allocator | Input grants = [ 0 -> 36  24 -> 32  ], output grants = [ 32 -> 24  36 -> 0  ].
10 | network_0/router_level1_48 | Assigning VC 0 at output 9 to VC 0 at input 0.
10 | network_0/router_level1_48 | Completed VC allocation for VC 0 at input 0 (front: 8).
10 | network_0/router_level1_48 |   Acquiring assigned VC 0 at output 9.
10 | network_0/router_level1_48/buf_0/vc_0 | Changing state from vc_alloc to active.
10 | network_0/router_level1_52 | Adding flit 7 to VC 0 at input 0 (state: idle, empty).
10 | network_0/router_level1_52 | Using precomputed lookahead routing information for VC 0 at input 0 (front: 7).
10 | network_0/router_level1_52/buf_0/vc_0 | Changing state from idle to vc_alloc.
10 | network_0/router_level1_52 | Beginning VC allocation for VC 0 at input 0 (front: 7).
10 | network_0/router_level1_52 |   Requesting VC 0 at output 9 (in_pri: 0, out_pri: 0).
10 | network_0/router_level1_52 |   Requesting VC 1 at output 9 (in_pri: 0, out_pri: 0).
10 | network_0/router_level1_52 |   Requesting VC 2 at output 9 (in_pri: 0, out_pri: 0).
10 | network_0/router_level1_52 |   Requesting VC 3 at output 9 (in_pri: 0, out_pri: 0).
10 | network_0/router_level1_52/vc_allocator | Input requests = [ 0 -> [ 36@0 37@0 38@0 39@0 ]  12 -> [ 28@0 29@0 30@0 31@0 ]  28 -> [ 32@0 33@0 34@0 35@0 ]  ], output requests = [ 28 -> [ 12@0 ]  29 -> [ 12@0 ]  30 -> [ 12@0 ]  31 -> [ 12@0 ]  32 -> [ 28@0 ]  33 -> [ 28@0 ]  34 -> [ 28@0 ]  35 -> [ 28@0 ]  36 -> [ 0@0 ]  37 -> [ 0@0 ]  38 -> [ 0@0 ]  39 -> [ 0@0 ]  ].
10 | network_0/router_level1_52/vc_allocator | Input grants = [ 0 -> 36  12 -> 28  28 -> 32  ], output grants = [ 28 -> 12  32 -> 28  36 -> 0  ].
10 | network_0/router_level1_52 | Assigning VC 0 at output 9 to VC 0 at input 0.
10 | network_0/router_level1_52 | Completed VC allocation for VC 0 at input 0 (front: 7).
10 | network_0/router_level1_52 |   Acquiring assigned VC 0 at output 9.
10 | network_0/router_level1_52/buf_0/vc_0 | Changing state from vc_alloc to active.
10 | network_0/router_level1_63 | Adding flit 3 to VC 0 at input 0 (state: idle, empty).
10 | network_0/router_level1_63 | Using precomputed lookahead routing information for VC 0 at input 0 (front: 3).
10 | network_0/router_level1_63/buf_0/vc_0 | Changing state from idle to vc_alloc.
10 | network_0/router_level1_63 | Beginning VC allocation for VC 0 at input 0 (front: 3).
10 | network_0/router_level1_63 |   Requesting VC 0 at output 8 (in_pri: 0, out_pri: 0).
10 | network_0/router_level1_63 |   Requesting VC 1 at output 8 (in_pri: 0, out_pri: 0).
10 | network_0/router_level1_63 |   Requesting VC 2 at output 8 (in_pri: 0, out_pri: 0).
10 | network_0/router_level1_63 |   Requesting VC 3 at output 8 (in_pri: 0, out_pri: 0).
10 | network_0/router_level1_63/vc_allocator | Input requests = [ 0 -> [ 32@0 33@0 34@0 35@0 ]  8 -> [ 36@0 37@0 38@0 39@0 ]  20 -> [ 4@0 5@0 6@0 7@0 ]  28 -> [ 36@0 37@0 38@0 39@0 ]  ], output requests = [ 4 -> [ 20@0 ]  5 -> [ 20@0 ]  6 -> [ 20@0 ]  7 -> [ 20@0 ]  32 -> [ 0@0 ]  33 -> [ 0@0 ]  34 -> [ 0@0 ]  35 -> [ 0@0 ]  36 -> [ 8@0 28@0 ]  37 -> [ 8@0 28@0 ]  38 -> [ 8@0 28@0 ]  39 -> [ 8@0 28@0 ]  ].
10 | network_0/router_level1_63/vc_allocator | Input grants = [ 0 -> 32  8 -> 36  20 -> 4  ], output grants = [ 4 -> 20  32 -> 0  36 -> 8  ].
10 | network_0/router_level1_63 | Assigning VC 0 at output 8 to VC 0 at input 0.
10 | network_0/router_level1_63 | Completed VC allocation for VC 0 at input 0 (front: 3).
10 | network_0/router_level1_63 |   Acquiring assigned VC 0 at output 8.
10 | network_0/router_level1_63/buf_0/vc_0 | Changing state from vc_alloc to active.
10 | network_0/router_level2_5 | Beginning crossbar traversal for flit 2 from input 0.0 to output 11.0.
10 | network_0/router_level2_5 | Completed crossbar traversal for flit 2 from input 0.0 to output 11.0.
10 | network_0/router_level2_5 | Buffering flit 2 at output 11.
10 | network_0/network_0_fchan_12347 | Completed channel traversal for flit 9.
10 | network_0/router_level2_5 | Sending flit 2 to channel at output 11.
11 | network_0/network_0_fchan_12331 | Beginning channel traversal for flit 2 with delay 1.
11 | network_0/router_level1_31 | Received flit 9 from channel at input 0.
11 | network_0/router_level1_9 | Beginning switch allocation for VC 0 at input 0 (front: 6).
11 | network_0/router_level1_9 |   Requesting output 9.0 (non-spec, pri: 0).
11 | network_0/router_level1_9/sw_allocator | Input requests = [ 0 -> [ 9@0 ]  1 -> [ 8@0 ]  ], output requests = [ 8 -> [ 1@0 ]  9 -> [ 0@0 ]  ].
11 | network_0/router_level1_9/sw_allocator | Input grants = [ 0 -> 9  1 -> 8  ], output grants = [ 8 -> 1  9 -> 0  ].
11 | network_0/router_level1_9 | Assigning output 9.0 to VC 0 at input 0.0.
11 | network_0/router_level1_9 | Completed switch allocation for VC 0 at input 0 (front: 6).
11 | network_0/router_level1_9 |   Scheduling switch connection from input 0.0 to output 9.0.
11 | network_0/router_level1_9 | Updating lookahead routing information for flit 6.
11 | network_0/router_level1_18 | Beginning switch allocation for VC 0 at input 0 (front: 4).
11 | network_0/router_level1_18 |   Requesting output 8.0 (non-spec, pri: 0).
11 | network_0/router_level1_18/sw_allocator | Input requests = [ 0 -> [ 8@0 ]  6 -> [ 9@0 ]  ], output requests = [ 8 -> [ 0@0 ]  9 -> [ 6@0 ]  ].
11 | network_0/router_level1_18/sw_allocator | Input grants = [ 0 -> 8  6 -> 9  ], output grants = [ 8 -> 0  9 -> 6  ].
11 | network_0/router_level1_18 | Assigning output 8.0 to VC 0 at input 0.0.
11 | network_0/router_level1_18 | Completed switch allocation for VC 0 at input 0 (front: 4).
11 | network_0/router_level1_18 |   Scheduling switch connection from input 0.0 to output 8.0.
11 | network_0/router_level1_18 | Updating lookahead routing information for flit 4.
11 | network_0/router_level1_29 | Beginning switch allocation for VC 0 at input 0 (front: 1).
11 | network_0/router_level1_29 |   Requesting output 9.0 (non-spec, pri: 0).
[...]
27 | network_0/router_level3_129 | Assigning output 6.0 to VC 0 at input 10.0.
27 | network_0/router_level3_129 | Completed switch allocation for VC 0 at input 10 (front: 10).
27 | network_0/router_level3_129 |   Scheduling switch connection from input 10.0 to output 6.0.
27 | network_0/router_level3_151 | Beginning switch allocation for VC 0 at input 15 (front: 3).
27 | network_0/router_level3_151 |   Requesting output 1.0 (non-spec, pri: 0).
27 | network_0/router_level3_151/sw_allocator | Input requests = [ 0 -> [ 8@0 12@0 15@0 ]  2 -> [ 10@0 ]  3 -> [ 9@0 ]  4 -> [ 11@0 ]  5 -> [ 9@0 14@0 ]  6 -> [ 13@0 14@0 ]  10 -> [ 2@0 ]  13 -> [ 4@0 ]  15 -> [ 1@0 ]  ], output requests = [ 1 -> [ 15@0 ]  2 -> [ 10@0 ]  4 -> [ 13@0 ]  8 -> [ 0@0 ]  9 -> [ 3@0 5@0 ]  10 -> [ 2@0 ]  11 -> [ 4@0 ]  12 -> [ 0@0 ]  13 -> [ 6@0 ]  14 -> [ 5@0 6@0 ]  15 -> [ 0@0 ]  ].
27 | network_0/router_level3_151/sw_allocator | Input grants = [ 0 -> 12  2 -> 10  3 -> 9  4 -> 11  5 -> 14  6 -> 13  10 -> 2  13 -> 4  15 -> 1  ], output grants = [ 1 -> 15  2 -> 10  4 -> 13  9 -> 3  10 -> 2  11 -> 4  12 -> 0  13 -> 6  14 -> 5  ].
27 | network_0/router_level3_151 | Assigning output 1.0 to VC 0 at input 15.0.
27 | network_0/router_level3_151 | Completed switch allocation for VC 0 at input 15 (front: 3).
27 | network_0/router_level3_151 |   Scheduling switch connection from input 15.0 to output 1.0.
27 | network_0/router_level3_171 | Beginning switch allocation for VC 0 at input 9 (front: 6).
27 | network_0/router_level3_171 |   Requesting output 2.0 (non-spec, pri: 0).
27 | network_0/router_level3_171/sw_allocator | Input requests = [ 1 -> [ 10@0 12@0 ]  2 -> [ 12@0 14@0 ]  4 -> [ 9@0 ]  5 -> [ 11@0 ]  6 -> [ 12@0 14@0 ]  7 -> [ 8@0 ]  9 -> [ 2@0 ]  12 -> [ 6@0 ]  15 -> [ 1@0 ]  ], output requests = [ 1 -> [ 15@0 ]  2 -> [ 9@0 ]  6 -> [ 12@0 ]  8 -> [ 7@0 ]  9 -> [ 4@0 ]  10 -> [ 1@0 ]  11 -> [ 5@0 ]  12 -> [ 1@0 2@0 6@0 ]  14 -> [ 2@0 6@0 ]  ].
27 | network_0/router_level3_171/sw_allocator | Input grants = [ 1 -> 10  4 -> 9  5 -> 11  6 -> 12  7 -> 8  9 -> 2  12 -> 6  15 -> 1  ], output grants = [ 1 -> 15  2 -> 9  6 -> 12  8 -> 7  9 -> 4  10 -> 1  11 -> 5  12 -> 6  ].
27 | network_0/router_level3_171 | Assigning output 2.0 to VC 0 at input 9.0.
27 | network_0/router_level3_171 | Completed switch allocation for VC 0 at input 9 (front: 6).
27 | network_0/router_level3_171 |   Scheduling switch connection from input 9.0 to output 2.0.
27 | network_0/router_level3_224 | Beginning switch allocation for VC 0 at input 8 (front: 8).
27 | network_0/router_level3_224 |   Requesting output 3.0 (non-spec, pri: 0).
27 | network_0/router_level3_224/sw_allocator | Input requests = [ 0 -> [ 8@0 12@0 ]  1 -> [ 12@0 14@0 ]  2 -> [ 13@0 ]  3 -> [ 11@0 ]  5 -> [ 13@0 ]  7 -> [ 10@0 ]  8 -> [ 3@0 ]  ], output requests = [ 3 -> [ 8@0 ]  8 -> [ 0@0 ]  10 -> [ 7@0 ]  11 -> [ 3@0 ]  12 -> [ 0@0 1@0 ]  13 -> [ 2@0 5@0 ]  14 -> [ 1@0 ]  ].
27 | network_0/router_level3_224/sw_allocator | Input grants = [ 0 -> 8  1 -> 12  2 -> 13  3 -> 11  7 -> 10  8 -> 3  ], output grants = [ 3 -> 8  8 -> 0  10 -> 7  11 -> 3  12 -> 1  13 -> 2  ].
27 | network_0/router_level3_224 | Assigning output 3.0 to VC 0 at input 8.0.
27 | network_0/router_level3_224 | Completed switch allocation for VC 0 at input 8 (front: 8).
27 | network_0/router_level3_224 |   Scheduling switch connection from input 8.0 to output 3.0.
27 | network_0/router_level3_226 | Beginning switch allocation for VC 0 at input 12 (front: 7).
27 | network_0/router_level3_226 |   Requesting output 2.0 (non-spec, pri: 0).
27 | network_0/router_level3_226/sw_allocator | Input requests = [ 1 -> [ 10@0 15@0 ]  2 -> [ 8@0 13@0 15@0 ]  3 -> [ 12@0 ]  4 -> [ 8@0 13@0 14@0 ]  5 -> [ 11@0 14@0 ]  6 -> [ 8@0 9@0 ]  7 -> [ 9@0 10@0 ]  9 -> [ 7@0 ]  12 -> [ 2@0 ]  ], output requests = [ 2 -> [ 12@0 ]  7 -> [ 9@0 ]  8 -> [ 2@0 4@0 6@0 ]  9 -> [ 6@0 7@0 ]  10 -> [ 1@0 7@0 ]  11 -> [ 5@0 ]  12 -> [ 3@0 ]  13 -> [ 2@0 4@0 ]  14 -> [ 4@0 5@0 ]  15 -> [ 1@0 2@0 ]  ].
27 | network_0/router_level3_226/sw_allocator | Input grants = [ 2 -> 15  3 -> 12  4 -> 13  5 -> 11  6 -> 8  7 -> 9  9 -> 7  12 -> 2  ], output grants = [ 2 -> 12  7 -> 9  8 -> 6  9 -> 7  11 -> 5  12 -> 3  13 -> 4  15 -> 2  ].
27 | network_0/router_level3_226 | Assigning output 2.0 to VC 0 at input 12.0.
27 | network_0/router_level3_226 | Completed switch allocation for VC 0 at input 12 (front: 7).
27 | network_0/router_level3_226 |   Scheduling switch connection from input 12.0 to output 2.0.
27 | network_0/router_level3_247 | Beginning switch allocation for VC 1 at input 13 (front: 1).
27 | network_0/router_level3_247 |   Requesting output 2.0 (non-spec, pri: 0).
27 | network_0/router_level3_247/sw_allocator | Input requests = [ 0 -> [ 15@0 ]  1 -> [ 11@0 14@0 ]  2 -> [ 12@0 ]  3 -> [ 10@0 ]  4 -> [ 14@0 ]  6 -> [ 11@0 ]  7 -> [ 8@0 9@0 ]  13 -> [ 2@0 ]  ], output requests = [ 2 -> [ 13@0 ]  8 -> [ 7@0 ]  9 -> [ 7@0 ]  10 -> [ 3@0 ]  11 -> [ 1@0 6@0 ]  12 -> [ 2@0 ]  14 -> [ 1@0 4@0 ]  15 -> [ 0@0 ]  ].
27 | network_0/router_level3_247/sw_allocator | Input grants = [ 0 -> 15  2 -> 12  3 -> 10  4 -> 14  6 -> 11  7 -> 8  13 -> 2  ], output grants = [ 2 -> 13  8 -> 7  10 -> 3  11 -> 6  12 -> 2  14 -> 4  15 -> 0  ].
27 | network_0/router_level3_247 | Assigning output 2.0 to VC 1 at input 13.0.
27 | network_0/router_level3_247 | Completed switch allocation for VC 1 at input 13 (front: 1).
27 | network_0/router_level3_247 |   Scheduling switch connection from input 13.0 to output 2.0.
27 | network_0/router_level3_305 | Beginning switch allocation for VC 0 at input 10 (front: 4).
27 | network_0/router_level3_305 |   Requesting output 0.0 (non-spec, pri: 0).
27 | network_0/router_level3_305/sw_allocator | Input requests = [ 2 -> [ 10@0 11@0 ]  3 -> [ 12@0 15@0 ]  4 -> [ 15@0 ]  5 -> [ 9@0 ]  6 -> [ 14@0 ]  7 -> [ 10@0 15@0 ]  10 -> [ 0@0 ]  12 -> [ 5@0 ]  ], output requests = [ 0 -> [ 10@0 ]  5 -> [ 12@0 ]  9 -> [ 5@0 ]  10 -> [ 2@0 7@0 ]  11 -> [ 2@0 ]  12 -> [ 3@0 ]  14 -> [ 6@0 ]  15 -> [ 3@0 4@0 7@0 ]  ].
27 | network_0/router_level3_305/sw_allocator | Input grants = [ 2 -> 10  5 -> 9  6 -> 14  7 -> 15  10 -> 0  12 -> 5  ], output grants = [ 0 -> 10  5 -> 12  9 -> 5  10 -> 2  14 -> 6  15 -> 7  ].
27 | network_0/router_level3_305 | Assigning output 0.0 to VC 0 at input 10.0.
27 | network_0/router_level3_305 | Completed switch allocation for VC 0 at input 10 (front: 4).
27 | network_0/router_level3_305 |   Scheduling switch connection from input 10.0 to output 0.0.
27 | network_0/router_level3_485 | Beginning switch allocation for VC 0 at input 14 (front: 5).
27 | network_0/router_level3_485 |   Requesting output 6.0 (non-spec, pri: 0).
27 | network_0/router_level3_485/sw_allocator | Input requests = [ 0 -> [ 13@0 ]  1 -> [ 8@0 10@0 ]  3 -> [ 13@0 15@0 ]  4 -> [ 9@0 14@0 ]  5 -> [ 15@0 ]  6 -> [ 11@0 ]  7 -> [ 9@0 ]  14 -> [ 6@0 ]  ], output requests = [ 6 -> [ 14@0 ]  8 -> [ 1@0 ]  9 -> [ 4@0 7@0 ]  10 -> [ 1@0 ]  11 -> [ 6@0 ]  13 -> [ 0@0 3@0 ]  14 -> [ 4@0 ]  15 -> [ 3@0 5@0 ]  ].
27 | network_0/router_level3_485/sw_allocator | Input grants = [ 0 -> 13  1 -> 8  4 -> 14  5 -> 15  6 -> 11  7 -> 9  14 -> 6  ], output grants = [ 6 -> 14  8 -> 1  9 -> 7  11 -> 6  13 -> 0  14 -> 4  15 -> 5  ].
27 | network_0/router_level3_485 | Assigning output 6.0 to VC 0 at input 14.0.
27 | network_0/router_level3_485 | Completed switch allocation for VC 0 at input 14 (front: 5).
27 | network_0/router_level3_485 |   Scheduling switch connection from input 14.0 to output 6.0.
27 | network_0/network_0_fchan_18158 | Completed channel traversal for flit 2.
28 | network_0/router_level3_222 | Received flit 2 from channel at input 13.
28 | network_0/router_level3_129 | Beginning crossbar traversal for flit 10 from input 10.0 to output 6.0.
28 | network_0/router_level3_129 | Completed crossbar traversal for flit 10 from input 10.0 to output 6.0.
28 | network_0/router_level3_129 | Buffering flit 10 at output 6.
28 | network_0/router_level3_151 | Beginning crossbar traversal for flit 3 from input 15.0 to output 1.0.
28 | network_0/router_level3_151 | Completed crossbar traversal for flit 3 from input 15.0 to output 1.0.
28 | network_0/router_level3_151 | Buffering flit 3 at output 1.
28 | network_0/router_level3_171 | Beginning crossbar traversal for flit 6 from input 9.0 to output 2.0.
28 | network_0/router_level3_171 | Completed crossbar traversal for flit 6 from input 9.0 to output 2.0.
28 | network_0/router_level3_171 | Buffering flit 6 at output 2.
28 | network_0/router_level3_222 | Adding flit 2 to VC 0 at input 13 (state: idle, empty).
28 | network_0/router_level3_222 | Using precomputed lookahead routing information for VC 0 at input 13 (front: 2).
28 | network_0/router_level3_222/buf_13/vc_0 | Changing state from idle to vc_alloc.
28 | network_0/router_level3_222 | Beginning VC allocation for VC 0 at input 13 (front: 2).
28 | network_0/router_level3_222 |   Requesting VC 0 at output 3 (in_pri: 0, out_pri: 0).
28 | network_0/router_level3_222 |   Requesting VC 1 at output 3 (in_pri: 0, out_pri: 0).
28 | network_0/router_level3_222 |   Requesting VC 2 at output 3 (in_pri: 0, out_pri: 0).
28 | network_0/router_level3_222 |   Requesting VC 3 at output 3 (in_pri: 0, out_pri: 0).
28 | network_0/router_level3_222/vc_allocator | Input requests = [ 1 -> [ 60@0 62@0 63@0 ]  2 -> [ 58@0 59@0 ]  19 -> [ 37@0 39@0 ]  20 -> [ 44@0 45@0 47@0 ]  27 -> [ 60@0 62@0 63@0 ]  31 -> [ 60@0 62@0 63@0 ]  52 -> [ 12@0 13@0 14@0 15@0 ]  56 -> [ 28@0 29@0 30@0 31@0 ]  ], output requests = [ 12 -> [ 52@0 ]  13 -> [ 52@0 ]  14 -> [ 52@0 ]  15 -> [ 52@0 ]  28 -> [ 56@0 ]  29 -> [ 56@0 ]  30 -> [ 56@0 ]  31 -> [ 56@0 ]  37 -> [ 19@0 ]  39 -> [ 19@0 ]  44 -> [ 20@0 ]  45 -> [ 20@0 ]  47 -> [ 20@0 ]  58 -> [ 2@0 ]  59 -> [ 2@0 ]  60 -> [ 1@0 27@0 31@0 ]  62 -> [ 1@0 27@0 31@0 ]  63 -> [ 1@0 27@0 31@0 ]  ].
28 | network_0/router_level3_222/vc_allocator | Input grants = [ 2 -> 58  19 -> 37  20 -> 44  27 -> 60  52 -> 12  56 -> 28  ], output grants = [ 12 -> 52  28 -> 56  37 -> 19  44 -> 20  58 -> 2  60 -> 27  ].
28 | network_0/router_level3_222 | Assigning VC 0 at output 3 to VC 0 at input 13.
28 | network_0/router_level3_222 | Completed VC allocation for VC 0 at input 13 (front: 2).
28 | network_0/router_level3_222 |   Acquiring assigned VC 0 at output 3.
28 | network_0/router_level3_222/buf_13/vc_0 | Changing state from vc_alloc to active.
28 | network_0/router_level3_224 | Beginning crossbar traversal for flit 8 from input 8.0 to output 3.0.
28 | network_0/router_level3_224 | Completed crossbar traversal for flit 8 from input 8.0 to output 3.0.
28 | network_0/router_level3_224 | Buffering flit 8 at output 3.
28 | network_0/router_level3_226 | Beginning crossbar traversal for flit 7 from input 12.0 to output 2.0.
28 | network_0/router_level3_226 | Completed crossbar traversal for flit 7 from input 12.0 to output 2.0.
28 | network_0/router_level3_226 | Buffering flit 7 at output 2.
28 | network_0/router_level3_247 | Beginning crossbar traversal for flit 1 from input 13.0 to output 2.0.
28 | network_0/router_level3_247 | Completed crossbar traversal for flit 1 from input 13.0 to output 2.0.
28 | network_0/router_level3_247 | Buffering flit 1 at output 2.
28 | network_0/router_level3_305 | Beginning crossbar traversal for flit 4 from input 10.0 to output 0.0.
28 | network_0/router_level3_305 | Completed crossbar traversal for flit 4 from input 10.0 to output 0.0.
28 | network_0/router_level3_305 | Buffering flit 4 at output 0.
28 | network_0/router_level3_485 | Beginning crossbar traversal for flit 5 from input 14.0 to output 6.0.
28 | network_0/router_level3_485 | Completed crossbar traversal for flit 5 from input 14.0 to output 6.0.
28 | network_0/router_level3_485 | Buffering flit 5 at output 6.
28 | network_0/router_level3_129 | Sending flit 10 to channel at output 6.
28 | network_0/router_level3_151 | Sending flit 3 to channel at output 1.
28 | network_0/router_level3_171 | Sending flit 6 to channel at output 2.
28 | network_0/router_level3_224 | Sending flit 8 to channel at output 3.
28 | network_0/router_level3_226 | Sending flit 7 to channel at output 2.
28 | network_0/router_level3_247 | Sending flit 1 to channel at output 2.
28 | network_0/router_level3_305 | Sending flit 4 to channel at output 0.
28 | network_0/router_level3_485 | Sending flit 5 to channel at output 6.
29 | network_0/network_0_fchan_egress1038 | Beginning channel traversal for flit 10 with delay 1.
29 | network_0/network_0_fchan_egress1209 | Beginning channel traversal for flit 3 with delay 1.
29 | network_0/network_0_fchan_egress1370 | Beginning channel traversal for flit 6 with delay 1.
29 | network_0/network_0_fchan_egress1795 | Beginning channel traversal for flit 8 with delay 1.
29 | network_0/network_0_fchan_egress1810 | Beginning channel traversal for flit 7 with delay 1.
29 | network_0/network_0_fchan_egress1978 | Beginning channel traversal for flit 1 with delay 1.
29 | network_0/network_0_fchan_egress2440 | Beginning channel traversal for flit 4 with delay 1.
29 | network_0/network_0_fchan_egress3886 | Beginning channel traversal for flit 5 with delay 1.
29 | network_0/router_level3_222 | Beginning switch allocation for VC 0 at input 13 (front: 2).
29 | network_0/router_level3_222 |   Requesting output 3.0 (non-spec, pri: 0).
29 | network_0/router_level3_222/sw_allocator | Input requests = [ 0 -> [ 14@0 ]  3 -> [ 11@0 14@0 ]  4 -> [ 9@0 13@0 ]  5 -> [ 11@0 ]  6 -> [ 8@0 15@0 ]  13 -> [ 3@0 ]  14 -> [ 7@0 ]  ], output requests = [ 3 -> [ 13@0 ]  7 -> [ 14@0 ]  8 -> [ 6@0 ]  9 -> [ 4@0 ]  11 -> [ 3@0 5@0 ]  13 -> [ 4@0 ]  14 -> [ 0@0 3@0 ]  15 -> [ 6@0 ]  ].
29 | network_0/router_level3_222/sw_allocator | Input grants = [ 0 -> 14  3 -> 11  4 -> 13  6 -> 15  13 -> 3  14 -> 7  ], output grants = [ 3 -> 13  7 -> 14  11 -> 3  13 -> 4  14 -> 0  15 -> 6  ].
29 | network_0/router_level3_222 | Assigning output 3.0 to VC 0 at input 13.0.
29 | network_0/router_level3_222 | Completed switch allocation for VC 0 at input 13 (front: 2).
29 | network_0/router_level3_222 |   Scheduling switch connection from input 13.0 to output 3.0.
29 | network_0/network_0_fchan_egress1038 | Completed channel traversal for flit 10.
29 | network_0/network_0_fchan_egress1209 | Completed channel traversal for flit 3.
29 | network_0/network_0_fchan_egress1370 | Completed channel traversal for flit 6.
29 | network_0/network_0_fchan_egress1795 | Completed channel traversal for flit 8.
29 | network_0/network_0_fchan_egress1810 | Completed channel traversal for flit 7.
29 | network_0/network_0_fchan_egress1978 | Completed channel traversal for flit 1.
29 | network_0/network_0_fchan_egress2440 | Completed channel traversal for flit 4.
29 | network_0/network_0_fchan_egress3886 | Completed channel traversal for flit 5.
30 | node1038 | Ejecting flit 10 (packet 10) from VC 0.
30 | node1209 | Ejecting flit 3 (packet 3) from VC 0.
30 | node1370 | Ejecting flit 6 (packet 6) from VC 0.
30 | node1795 | Ejecting flit 8 (packet 8) from VC 0.
30 | node1810 | Ejecting flit 7 (packet 7) from VC 0.
30 | node1978 | Ejecting flit 1 (packet 1) from VC 0.
30 | node2440 | Ejecting flit 4 (packet 4) from VC 0.
30 | node3886 | Ejecting flit 5 (packet 5) from VC 0.
30 | node1038 | Injecting credit for VC 0 into subnet 0.
30 | node1038 | Retiring flit 10 (packet 10, src = 17, dest = 1038, hops = 7, flat = 30).
30 | node1038 | Retiring packet 10 (plat = 30, nlat = 30, frag = 0, src = 17, dest = 1038).
30 | node1209 | Injecting credit for VC 0 into subnet 0.
30 | node1209 | Retiring flit 3 (packet 3, src = 8, dest = 1209, hops = 7, flat = 30).
30 | node1209 | Retiring packet 3 (plat = 30, nlat = 30, frag = 0, src = 8, dest = 1209).
30 | node1370 | Injecting credit for VC 0 into subnet 0.
30 | node1370 | Retiring flit 6 (packet 6, src = 12, dest = 1370, hops = 7, flat = 30).
30 | node1370 | Retiring packet 6 (plat = 30, nlat = 30, frag = 0, src = 12, dest = 1370).
30 | node1795 | Injecting credit for VC 0 into subnet 0.
30 | node1795 | Retiring flit 8 (packet 8, src = 14, dest = 1795, hops = 7, flat = 30).
30 | node1795 | Retiring packet 8 (plat = 30, nlat = 30, frag = 0, src = 14, dest = 1795).
30 | node1810 | Injecting credit for VC 0 into subnet 0.
30 | node1810 | Retiring flit 7 (packet 7, src = 13, dest = 1810, hops = 7, flat = 30).
30 | node1810 | Retiring packet 7 (plat = 30, nlat = 30, frag = 0, src = 13, dest = 1810).
30 | node1978 | Injecting credit for VC 0 into subnet 0.
30 | node1978 | Retiring flit 1 (packet 1, src = 4, dest = 1978, hops = 7, flat = 30).
30 | node1978 | Retiring packet 1 (plat = 30, nlat = 30, frag = 0, src = 4, dest = 1978).
30 | node2440 | Injecting credit for VC 0 into subnet 0.
30 | node2440 | Retiring flit 4 (packet 4, src = 9, dest = 2440, hops = 7, flat = 30).
30 | node2440 | Retiring packet 4 (plat = 30, nlat = 30, frag = 0, src = 9, dest = 2440).
30 | node3886 | Injecting credit for VC 0 into subnet 0.
30 | node3886 | Retiring flit 5 (packet 5, src = 11, dest = 3886, hops = 7, flat = 30).
30 | node3886 | Retiring packet 5 (plat = 30, nlat = 30, frag = 0, src = 11, dest = 3886).
30 | network_0/router_level3_222 | Beginning crossbar traversal for flit 2 from input 13.0 to output 3.0.
30 | network_0/router_level3_222 | Completed crossbar traversal for flit 2 from input 13.0 to output 3.0.
30 | network_0/router_level3_222 | Buffering flit 2 at output 3.
30 | network_0/router_level3_222 | Sending flit 2 to channel at output 3.
31 | network_0/network_0_fchan_egress1779 | Beginning channel traversal for flit 2 with delay 1.
31 | network_0/network_0_fchan_egress1779 | Completed channel traversal for flit 2.
32 | node1779 | Ejecting flit 2 (packet 2) from VC 0.
32 | node1779 | Injecting credit for VC 0 into subnet 0.
32 | node1779 | Retiring flit 2 (packet 2, src = 5, dest = 1779, hops = 7, flat = 32).
32 | node1779 | Retiring packet 2 (plat = 32, nlat = 32, frag = 0, src = 5, dest = 1779).
Class 0:
Packet latency average = 339.627
	minimum = 6
	maximum = 855
Network latency average = 339.4
	minimum = 6
	maximum = 855
Slowest packet = 356175
Flit latency average = 339.4
	minimum = 6
	maximum = 855
Slowest flit = 356175
Fragmentation average = 0
	minimum = 0
	maximum = 0
Injected packet rate average = 0.369912
	minimum = 0.28 (at node 854)
	maximum = 0.453 (at node 2930)
Accepted packet rate average = 0.19311
	minimum = 0.141 (at node 768)
	maximum = 0.244 (at node 2852)
Injected flit rate average = 0.369912
	minimum = 0.28 (at node 854)
	maximum = 0.453 (at node 2930)
Accepted flit rate average= 0.19311
	minimum = 0.141 (at node 768)
	maximum = 0.244 (at node 2852)
Injected packet length average = 1
Accepted packet length average = 1
Total in-flight flits = 727554 (0 measured)
latency change    = 1
throughput change = 1
Class 0:
Packet latency average = 675.95
	minimum = 6
	maximum = 1706
Network latency average = 597.271
	minimum = 6
	maximum = 1706
Slowest packet = 693852
Flit latency average = 597.271
	minimum = 6
	maximum = 1706
Slowest flit = 693852
Fragmentation average = 0
	minimum = 0
	maximum = 0
Injected packet rate average = 0.278381
	minimum = 0.2055 (at node 4012)
	maximum = 0.3425 (at node 3118)
Accepted packet rate average = 0.194031
	minimum = 0.1585 (at node 2940)
	maximum = 0.2365 (at node 2025)
Injected flit rate average = 0.278381
	minimum = 0.2055 (at node 4012)
	maximum = 0.3425 (at node 3118)
Accepted flit rate average= 0.194031
	minimum = 0.1585 (at node 2940)
	maximum = 0.2365 (at node 2025)
Injected packet length average = 1
Accepted packet length average = 1
Total in-flight flits = 694371 (0 measured)
latency change    = 0.497556
throughput change = 0.00474615
Average latency for class 0 exceeded 500 cycles. Aborting simulation.
Too many sample periods needed to converge
Simulation unstable, ending ...
Total run time 329.671
