BEGIN Configuration File: examples/fattree_config_0.50_1_uniform
// $Id: dragonflyconfig 3555 2011-05-16 23:37:55Z dub $

// Copyright (c) 2007-2015, Trustees of The Leland Stanford Junior University
// All rights reserved.
//
// Redistribution and use in source and binary forms, with or without
// modification, are permitted provided that the following conditions are met:
//
// Redistributions of source code must retain the above copyright notice, this
// list of conditions and the following disclaimer.
// Redistributions in binary form must reproduce the above copyright notice,
// this list of conditions and the following disclaimer in the documentation
// and/or other materials provided with the distribution.
//
// THIS SOFTWARE IS PROVIDED BY THE COPYRIGHT HOLDERS AND CONTRIBUTORS "AS IS"
// AND ANY EXPRESS OR IMPLIED WARRANTIES, INCLUDING, BUT NOT LIMITED TO, THE
// IMPLIED WARRANTIES OF MERCHANTABILITY AND FITNESS FOR A PARTICULAR PURPOSE
// ARE DISCLAIMED. IN NO EVENT SHALL THE COPYRIGHT OWNER OR CONTRIBUTORS BE
// LIABLE FOR ANY DIRECT, INDIRECT, INCIDENTAL, SPECIAL, EXEMPLARY, OR
// CONSEQUENTIAL DAMAGES (INCLUDING, BUT NOT LIMITED TO, PROCUREMENT OF
// SUBSTITUTE GOODS OR SERVICES; LOSS OF USE, DATA, OR PROFITS; OR BUSINESS
// INTERRUPTION) HOWEVER CAUSED AND ON ANY THEORY OF LIABILITY, WHETHER IN
// CONTRACT, STRICT LIABILITY, OR TORT (INCLUDING NEGLIGENCE OR OTHERWISE)
// ARISING IN ANY WAY OUT OF THE USE OF THIS SOFTWARE, EVEN IF ADVISED OF THE
// POSSIBILITY OF SUCH DAMAGE.


hold_switch_for_packet=1;

vc_buf_size = 16;


wait_for_tail_credit = 0;

//
// Router architecture
//
vc_allocator = separable_input_first; 
sw_allocator = separable_input_first;
alloc_iters  = 1;

credit_delay   = 2;
routing_delay  = 0;
vc_alloc_delay = 1;
sw_alloc_delay = 1;
st_final_delay = 1;

input_speedup     = 1;
output_speedup    = 1;
internal_speedup  = 1.0;


warmup_periods = 3;
sim_count          = 1;

sample_period  = 1000;  

routing_function = nca;
num_vcs     = 4;

priority = none;
traffic = uniform;


injection_rate = 0.50;
packet_size = 1;
injection_rate_uses_flits=1;

topology = fattree;

k  = 8;
n  = 4;
t = 1;

watch_file = watchfile.txt;
watch_out=-;
stats_out = examples/fattree_config_0.50_1_uniform.m;

END Configuration File: examples/fattree_config_0.50_1_uniform
Fat Tree
 k = 8 levels = 4
 each switch - total radix =  16
 # of switches = 2048
 # of channels = 24576
 # of nodes ( size of network ) = 4096
 tapering factor = 1
0 | node5 | Enqueuing flit 1 (packet 1) at time 0.
0 | node8 | Enqueuing flit 2 (packet 2) at time 0.
0 | node9 | Enqueuing flit 3 (packet 3) at time 0.
0 | node11 | Enqueuing flit 4 (packet 4) at time 0.
0 | node12 | Enqueuing flit 5 (packet 5) at time 0.
0 | node13 | Enqueuing flit 6 (packet 6) at time 0.
0 | node14 | Enqueuing flit 7 (packet 7) at time 0.
0 | node15 | Enqueuing flit 8 (packet 8) at time 0.
0 | node18 | Enqueuing flit 9 (packet 9) at time 0.
0 | node19 | Enqueuing flit 10 (packet 10) at time 0.
0 | traffic_manager | Finding output VC for flit 1:
0 | traffic_manager |   Selected output VC 0.
0 | node5 | Generating lookahead routing info for flit 1.
0 | node5 | Injecting flit 1 into subnet 0 at time 0 with priority 0.
0 | traffic_manager | Finding output VC for flit 2:
0 | traffic_manager |   Selected output VC 0.
0 | node8 | Generating lookahead routing info for flit 2.
0 | node8 | Injecting flit 2 into subnet 0 at time 0 with priority 0.
0 | traffic_manager | Finding output VC for flit 3:
0 | traffic_manager |   Selected output VC 0.
0 | node9 | Generating lookahead routing info for flit 3.
0 | node9 | Injecting flit 3 into subnet 0 at time 0 with priority 0.
0 | traffic_manager | Finding output VC for flit 4:
0 | traffic_manager |   Selected output VC 0.
0 | node11 | Generating lookahead routing info for flit 4.
0 | node11 | Injecting flit 4 into subnet 0 at time 0 with priority 0.
0 | traffic_manager | Finding output VC for flit 5:
0 | traffic_manager |   Selected output VC 0.
0 | node12 | Generating lookahead routing info for flit 5.
0 | node12 | Injecting flit 5 into subnet 0 at time 0 with priority 0.
0 | traffic_manager | Finding output VC for flit 6:
0 | traffic_manager |   Selected output VC 0.
0 | node13 | Generating lookahead routing info for flit 6.
0 | node13 | Injecting flit 6 into subnet 0 at time 0 with priority 0.
0 | traffic_manager | Finding output VC for flit 7:
0 | traffic_manager |   Selected output VC 0.
0 | node14 | Generating lookahead routing info for flit 7.
0 | node14 | Injecting flit 7 into subnet 0 at time 0 with priority 0.
0 | traffic_manager | Finding output VC for flit 8:
0 | traffic_manager |   Selected output VC 0.
0 | node15 | Generating lookahead routing info for flit 8.
0 | node15 | Injecting flit 8 into subnet 0 at time 0 with priority 0.
0 | traffic_manager | Finding output VC for flit 9:
0 | traffic_manager |   Selected output VC 0.
0 | node18 | Generating lookahead routing info for flit 9.
0 | node18 | Injecting flit 9 into subnet 0 at time 0 with priority 0.
0 | traffic_manager | Finding output VC for flit 10:
0 | traffic_manager |   Selected output VC 0.
0 | node19 | Generating lookahead routing info for flit 10.
0 | node19 | Injecting flit 10 into subnet 0 at time 0 with priority 0.
1 | network_0/network_0_fchan_ingress5 | Beginning channel traversal for flit 1 with delay 1.
1 | network_0/network_0_fchan_ingress8 | Beginning channel traversal for flit 2 with delay 1.
1 | network_0/network_0_fchan_ingress9 | Beginning channel traversal for flit 3 with delay 1.
1 | network_0/network_0_fchan_ingress11 | Beginning channel traversal for flit 4 with delay 1.
1 | network_0/network_0_fchan_ingress12 | Beginning channel traversal for flit 5 with delay 1.
1 | network_0/network_0_fchan_ingress13 | Beginning channel traversal for flit 6 with delay 1.
1 | network_0/network_0_fchan_ingress14 | Beginning channel traversal for flit 7 with delay 1.
1 | network_0/network_0_fchan_ingress15 | Beginning channel traversal for flit 8 with delay 1.
1 | network_0/network_0_fchan_ingress18 | Beginning channel traversal for flit 9 with delay 1.
1 | network_0/network_0_fchan_ingress19 | Beginning channel traversal for flit 10 with delay 1.
1 | network_0/network_0_fchan_ingress5 | Completed channel traversal for flit 1.
1 | network_0/network_0_fchan_ingress8 | Completed channel traversal for flit 2.
1 | network_0/network_0_fchan_ingress9 | Completed channel traversal for flit 3.
1 | network_0/network_0_fchan_ingress11 | Completed channel traversal for flit 4.
1 | network_0/network_0_fchan_ingress12 | Completed channel traversal for flit 5.
1 | network_0/network_0_fchan_ingress13 | Completed channel traversal for flit 6.
1 | network_0/network_0_fchan_ingress14 | Completed channel traversal for flit 7.
1 | network_0/network_0_fchan_ingress15 | Completed channel traversal for flit 8.
1 | network_0/network_0_fchan_ingress18 | Completed channel traversal for flit 9.
1 | network_0/network_0_fchan_ingress19 | Completed channel traversal for flit 10.
2 | network_0/router_level3_0 | Received flit 1 from channel at input 5.
2 | network_0/router_level3_1 | Received flit 2 from channel at input 0.
2 | network_0/router_level3_1 | Received flit 3 from channel at input 1.
2 | network_0/router_level3_1 | Received flit 4 from channel at input 3.
2 | network_0/router_level3_1 | Received flit 5 from channel at input 4.
2 | network_0/router_level3_1 | Received flit 6 from channel at input 5.
2 | network_0/router_level3_1 | Received flit 7 from channel at input 6.
2 | network_0/router_level3_1 | Received flit 8 from channel at input 7.
2 | network_0/router_level3_2 | Received flit 9 from channel at input 2.
2 | network_0/router_level3_2 | Received flit 10 from channel at input 3.
2 | network_0/router_level3_0 | Adding flit 1 to VC 0 at input 5 (state: idle, empty).
2 | network_0/router_level3_0 | Using precomputed lookahead routing information for VC 0 at input 5 (front: 1).
2 | network_0/router_level3_0/buf_5/vc_0 | Changing state from idle to vc_alloc.
2 | network_0/router_level3_0 | Beginning VC allocation for VC 0 at input 5 (front: 1).
2 | network_0/router_level3_0 |   Requesting VC 0 at output 14 (in_pri: 0, out_pri: 0).
2 | network_0/router_level3_0 |   Requesting VC 1 at output 14 (in_pri: 0, out_pri: 0).
2 | network_0/router_level3_0 |   Requesting VC 2 at output 14 (in_pri: 0, out_pri: 0).
2 | network_0/router_level3_0 |   Requesting VC 3 at output 14 (in_pri: 0, out_pri: 0).
2 | network_0/router_level3_0/vc_allocator | Input requests = [ 16 -> [ 32@0 33@0 34@0 35@0 ]  20 -> [ 56@0 57@0 58@0 59@0 ]  ], output requests = [ 32 -> [ 16@0 ]  33 -> [ 16@0 ]  34 -> [ 16@0 ]  35 -> [ 16@0 ]  56 -> [ 20@0 ]  57 -> [ 20@0 ]  58 -> [ 20@0 ]  59 -> [ 20@0 ]  ].
2 | network_0/router_level3_0/vc_allocator | Input grants = [ 16 -> 32  20 -> 56  ], output grants = [ 32 -> 16  56 -> 20  ].
2 | network_0/router_level3_0 | Assigning VC 0 at output 14 to VC 0 at input 5.
2 | network_0/router_level3_0 | Completed VC allocation for VC 0 at input 5 (front: 1).
2 | network_0/router_level3_0 |   Acquiring assigned VC 0 at output 14.
2 | network_0/router_level3_0/buf_5/vc_0 | Changing state from vc_alloc to active.
2 | network_0/router_level3_1 | Adding flit 2 to VC 0 at input 0 (state: idle, empty).
2 | network_0/router_level3_1 | Using precomputed lookahead routing information for VC 0 at input 0 (front: 2).
2 | network_0/router_level3_1/buf_0/vc_0 | Changing state from idle to vc_alloc.
2 | network_0/router_level3_1 | Adding flit 3 to VC 0 at input 1 (state: idle, empty).
2 | network_0/router_level3_1 | Using precomputed lookahead routing information for VC 0 at input 1 (front: 3).
2 | network_0/router_level3_1/buf_1/vc_0 | Changing state from idle to vc_alloc.
2 | network_0/router_level3_1 | Adding flit 4 to VC 0 at input 3 (state: idle, empty).
2 | network_0/router_level3_1 | Using precomputed lookahead routing information for VC 0 at input 3 (front: 4).
2 | network_0/router_level3_1/buf_3/vc_0 | Changing state from idle to vc_alloc.
2 | network_0/router_level3_1 | Adding flit 5 to VC 0 at input 4 (state: idle, empty).
2 | network_0/router_level3_1 | Using precomputed lookahead routing information for VC 0 at input 4 (front: 5).
2 | network_0/router_level3_1/buf_4/vc_0 | Changing state from idle to vc_alloc.
2 | network_0/router_level3_1 | Adding flit 6 to VC 0 at input 5 (state: idle, empty).
2 | network_0/router_level3_1 | Using precomputed lookahead routing information for VC 0 at input 5 (front: 6).
2 | network_0/router_level3_1/buf_5/vc_0 | Changing state from idle to vc_alloc.
2 | network_0/router_level3_1 | Adding flit 7 to VC 0 at input 6 (state: idle, empty).
2 | network_0/router_level3_1 | Using precomputed lookahead routing information for VC 0 at input 6 (front: 7).
2 | network_0/router_level3_1/buf_6/vc_0 | Changing state from idle to vc_alloc.
2 | network_0/router_level3_1 | Adding flit 8 to VC 0 at input 7 (state: idle, empty).
2 | network_0/router_level3_1 | Using precomputed lookahead routing information for VC 0 at input 7 (front: 8).
2 | network_0/router_level3_1/buf_7/vc_0 | Changing state from idle to vc_alloc.
2 | network_0/router_level3_1 | Beginning VC allocation for VC 0 at input 0 (front: 2).
2 | network_0/router_level3_1 |   Requesting VC 0 at output 8 (in_pri: 0, out_pri: 0).
2 | network_0/router_level3_1 |   Requesting VC 1 at output 8 (in_pri: 0, out_pri: 0).
2 | network_0/router_level3_1 |   Requesting VC 2 at output 8 (in_pri: 0, out_pri: 0).
2 | network_0/router_level3_1 |   Requesting VC 3 at output 8 (in_pri: 0, out_pri: 0).
2 | network_0/router_level3_1 | Beginning VC allocation for VC 0 at input 1 (front: 3).
2 | network_0/router_level3_1 |   Requesting VC 0 at output 13 (in_pri: 0, out_pri: 0).
2 | network_0/router_level3_1 |   Requesting VC 1 at output 13 (in_pri: 0, out_pri: 0).
2 | network_0/router_level3_1 |   Requesting VC 2 at output 13 (in_pri: 0, out_pri: 0).
2 | network_0/router_level3_1 |   Requesting VC 3 at output 13 (in_pri: 0, out_pri: 0).
2 | network_0/router_level3_1 | Beginning VC allocation for VC 0 at input 3 (front: 4).
2 | network_0/router_level3_1 |   Requesting VC 0 at output 15 (in_pri: 0, out_pri: 0).
2 | network_0/router_level3_1 |   Requesting VC 1 at output 15 (in_pri: 0, out_pri: 0).
2 | network_0/router_level3_1 |   Requesting VC 2 at output 15 (in_pri: 0, out_pri: 0).
2 | network_0/router_level3_1 |   Requesting VC 3 at output 15 (in_pri: 0, out_pri: 0).
2 | network_0/router_level3_1 | Beginning VC allocation for VC 0 at input 4 (front: 5).
2 | network_0/router_level3_1 |   Requesting VC 0 at output 14 (in_pri: 0, out_pri: 0).
2 | network_0/router_level3_1 |   Requesting VC 1 at output 14 (in_pri: 0, out_pri: 0).
2 | network_0/router_level3_1 |   Requesting VC 2 at output 14 (in_pri: 0, out_pri: 0).
2 | network_0/router_level3_1 |   Requesting VC 3 at output 14 (in_pri: 0, out_pri: 0).
2 | network_0/router_level3_1 | Beginning VC allocation for VC 0 at input 5 (front: 6).
2 | network_0/router_level3_1 |   Requesting VC 0 at output 12 (in_pri: 0, out_pri: 0).
2 | network_0/router_level3_1 |   Requesting VC 1 at output 12 (in_pri: 0, out_pri: 0).
2 | network_0/router_level3_1 |   Requesting VC 2 at output 12 (in_pri: 0, out_pri: 0).
2 | network_0/router_level3_1 |   Requesting VC 3 at output 12 (in_pri: 0, out_pri: 0).
2 | network_0/router_level3_1 | Beginning VC allocation for VC 0 at input 6 (front: 7).
2 | network_0/router_level3_1 |   Requesting VC 0 at output 8 (in_pri: 0, out_pri: 0).
2 | network_0/router_level3_1 |   Requesting VC 1 at output 8 (in_pri: 0, out_pri: 0).
2 | network_0/router_level3_1 |   Requesting VC 2 at output 8 (in_pri: 0, out_pri: 0).
2 | network_0/router_level3_1 |   Requesting VC 3 at output 8 (in_pri: 0, out_pri: 0).
2 | network_0/router_level3_1 | Beginning VC allocation for VC 0 at input 7 (front: 8).
2 | network_0/router_level3_1 |   Requesting VC 0 at output 15 (in_pri: 0, out_pri: 0).
2 | network_0/router_level3_1 |   Requesting VC 1 at output 15 (in_pri: 0, out_pri: 0).
2 | network_0/router_level3_1 |   Requesting VC 2 at output 15 (in_pri: 0, out_pri: 0).
2 | network_0/router_level3_1 |   Requesting VC 3 at output 15 (in_pri: 0, out_pri: 0).
2 | network_0/router_level3_1/vc_allocator | Input requests = [ 0 -> [ 32@0 33@0 34@0 35@0 ]  4 -> [ 52@0 53@0 54@0 55@0 ]  12 -> [ 60@0 61@0 62@0 63@0 ]  16 -> [ 56@0 57@0 58@0 59@0 ]  20 -> [ 48@0 49@0 50@0 51@0 ]  24 -> [ 32@0 33@0 34@0 35@0 ]  28 -> [ 60@0 61@0 62@0 63@0 ]  ], output requests = [ 32 -> [ 0@0 24@0 ]  33 -> [ 0@0 24@0 ]  34 -> [ 0@0 24@0 ]  35 -> [ 0@0 24@0 ]  48 -> [ 20@0 ]  49 -> [ 20@0 ]  50 -> [ 20@0 ]  51 -> [ 20@0 ]  52 -> [ 4@0 ]  53 -> [ 4@0 ]  54 -> [ 4@0 ]  55 -> [ 4@0 ]  56 -> [ 16@0 ]  57 -> [ 16@0 ]  58 -> [ 16@0 ]  59 -> [ 16@0 ]  60 -> [ 12@0 28@0 ]  61 -> [ 12@0 28@0 ]  62 -> [ 12@0 28@0 ]  63 -> [ 12@0 28@0 ]  ].
2 | network_0/router_level3_1/vc_allocator | Input grants = [ 0 -> 32  4 -> 52  12 -> 60  16 -> 56  20 -> 48  ], output grants = [ 32 -> 0  48 -> 20  52 -> 4  56 -> 16  60 -> 12  ].
2 | network_0/router_level3_1 | Assigning VC 0 at output 8 to VC 0 at input 0.
2 | network_0/router_level3_1 | Assigning VC 0 at output 13 to VC 0 at input 1.
2 | network_0/router_level3_1 | Assigning VC 0 at output 15 to VC 0 at input 3.
2 | network_0/router_level3_1 | Assigning VC 0 at output 14 to VC 0 at input 4.
2 | network_0/router_level3_1 | Assigning VC 0 at output 12 to VC 0 at input 5.
2 | network_0/router_level3_1 | VC allocation failed for VC 0 at input 6.
2 | network_0/router_level3_1 | VC allocation failed for VC 0 at input 7.
2 | network_0/router_level3_1 | Completed VC allocation for VC 0 at input 0 (front: 2).
2 | network_0/router_level3_1 |   Acquiring assigned VC 0 at output 8.
2 | network_0/router_level3_1/buf_0/vc_0 | Changing state from vc_alloc to active.
2 | network_0/router_level3_1 | Completed VC allocation for VC 0 at input 1 (front: 3).
2 | network_0/router_level3_1 |   Acquiring assigned VC 0 at output 13.
2 | network_0/router_level3_1/buf_1/vc_0 | Changing state from vc_alloc to active.
2 | network_0/router_level3_1 | Completed VC allocation for VC 0 at input 3 (front: 4).
2 | network_0/router_level3_1 |   Acquiring assigned VC 0 at output 15.
2 | network_0/router_level3_1/buf_3/vc_0 | Changing state from vc_alloc to active.
2 | network_0/router_level3_1 | Completed VC allocation for VC 0 at input 4 (front: 5).
2 | network_0/router_level3_1 |   Acquiring assigned VC 0 at output 14.
2 | network_0/router_level3_1/buf_4/vc_0 | Changing state from vc_alloc to active.
2 | network_0/router_level3_1 | Completed VC allocation for VC 0 at input 5 (front: 6).
2 | network_0/router_level3_1 |   Acquiring assigned VC 0 at output 12.
2 | network_0/router_level3_1/buf_5/vc_0 | Changing state from vc_alloc to active.
2 | network_0/router_level3_1 | Completed VC allocation for VC 0 at input 6 (front: 7).
2 | network_0/router_level3_1 |   No output VC allocated.
2 | network_0/router_level3_1 | Completed VC allocation for VC 0 at input 7 (front: 8).
2 | network_0/router_level3_1 |   No output VC allocated.
2 | network_0/router_level3_2 | Adding flit 9 to VC 0 at input 2 (state: idle, empty).
2 | network_0/router_level3_2 | Using precomputed lookahead routing information for VC 0 at input 2 (front: 9).
2 | network_0/router_level3_2/buf_2/vc_0 | Changing state from idle to vc_alloc.
2 | network_0/router_level3_2 | Adding flit 10 to VC 0 at input 3 (state: idle, empty).
2 | network_0/router_level3_2 | Using precomputed lookahead routing information for VC 0 at input 3 (front: 10).
2 | network_0/router_level3_2/buf_3/vc_0 | Changing state from idle to vc_alloc.
2 | network_0/router_level3_2 | Beginning VC allocation for VC 0 at input 2 (front: 9).
2 | network_0/router_level3_2 |   Requesting VC 0 at output 8 (in_pri: 0, out_pri: 0).
2 | network_0/router_level3_2 |   Requesting VC 1 at output 8 (in_pri: 0, out_pri: 0).
2 | network_0/router_level3_2 |   Requesting VC 2 at output 8 (in_pri: 0, out_pri: 0).
2 | network_0/router_level3_2 |   Requesting VC 3 at output 8 (in_pri: 0, out_pri: 0).
2 | network_0/router_level3_2 | Beginning VC allocation for VC 0 at input 3 (front: 10).
2 | network_0/router_level3_2 |   Requesting VC 0 at output 10 (in_pri: 0, out_pri: 0).
2 | network_0/router_level3_2 |   Requesting VC 1 at output 10 (in_pri: 0, out_pri: 0).
2 | network_0/router_level3_2 |   Requesting VC 2 at output 10 (in_pri: 0, out_pri: 0).
2 | network_0/router_level3_2 |   Requesting VC 3 at output 10 (in_pri: 0, out_pri: 0).
2 | network_0/router_level3_2/vc_allocator | Input requests = [ 8 -> [ 32@0 33@0 34@0 35@0 ]  12 -> [ 40@0 41@0 42@0 43@0 ]  16 -> [ 32@0 33@0 34@0 35@0 ]  20 -> [ 40@0 41@0 42@0 43@0 ]  24 -> [ 40@0 41@0 42@0 43@0 ]  28 -> [ 40@0 41@0 42@0 43@0 ]  ], output requests = [ 32 -> [ 8@0 16@0 ]  33 -> [ 8@0 16@0 ]  34 -> [ 8@0 16@0 ]  35 -> [ 8@0 16@0 ]  40 -> [ 12@0 20@0 24@0 28@0 ]  41 -> [ 12@0 20@0 24@0 28@0 ]  42 -> [ 12@0 20@0 24@0 28@0 ]  43 -> [ 12@0 20@0 24@0 28@0 ]  ].
2 | network_0/router_level3_2/vc_allocator | Input grants = [ 8 -> 32  12 -> 40  ], output grants = [ 32 -> 8  40 -> 12  ].
2 | network_0/router_level3_2 | Assigning VC 0 at output 8 to VC 0 at input 2.
2 | network_0/router_level3_2 | Assigning VC 0 at output 10 to VC 0 at input 3.
2 | network_0/router_level3_2 | Completed VC allocation for VC 0 at input 2 (front: 9).
2 | network_0/router_level3_2 |   Acquiring assigned VC 0 at output 8.
2 | network_0/router_level3_2/buf_2/vc_0 | Changing state from vc_alloc to active.
2 | network_0/router_level3_2 | Completed VC allocation for VC 0 at input 3 (front: 10).
2 | network_0/router_level3_2 |   Acquiring assigned VC 0 at output 10.
2 | network_0/router_level3_2/buf_3/vc_0 | Changing state from vc_alloc to active.
3 | network_0/router_level3_0 | Beginning switch allocation for VC 0 at input 5 (front: 1).
3 | network_0/router_level3_0 |   Requesting output 14.0 (non-spec, pri: 0).
3 | network_0/router_level3_0/sw_allocator | Input requests = [ 4 -> [ 8@0 ]  5 -> [ 14@0 ]  ], output requests = [ 8 -> [ 4@0 ]  14 -> [ 5@0 ]  ].
3 | network_0/router_level3_0/sw_allocator | Input grants = [ 4 -> 8  5 -> 14  ], output grants = [ 8 -> 4  14 -> 5  ].
3 | network_0/router_level3_0 | Assigning output 14.0 to VC 0 at input 5.0.
3 | network_0/router_level3_0 | Completed switch allocation for VC 0 at input 5 (front: 1).
3 | network_0/router_level3_0 |   Scheduling switch connection from input 5.0 to output 14.0.
3 | network_0/router_level3_0 | Updating lookahead routing information for flit 1.
3 | network_0/router_level3_1 | Beginning VC allocation for VC 0 at input 6 (front: 7).
3 | network_0/router_level3_1 |   VC 0 at output 8 is in use by VC 0 at input 0 (front flit: 2).
3 | network_0/router_level3_1 |   Requesting VC 1 at output 8 (in_pri: 0, out_pri: 0).
3 | network_0/router_level3_1 |   Requesting VC 2 at output 8 (in_pri: 0, out_pri: 0).
3 | network_0/router_level3_1 |   Requesting VC 3 at output 8 (in_pri: 0, out_pri: 0).
3 | network_0/router_level3_1 | Beginning VC allocation for VC 0 at input 7 (front: 8).
3 | network_0/router_level3_1 |   VC 0 at output 15 is in use by VC 0 at input 3 (front flit: 4).
3 | network_0/router_level3_1 |   Requesting VC 1 at output 15 (in_pri: 0, out_pri: 0).
3 | network_0/router_level3_1 |   Requesting VC 2 at output 15 (in_pri: 0, out_pri: 0).
3 | network_0/router_level3_1 |   Requesting VC 3 at output 15 (in_pri: 0, out_pri: 0).
3 | network_0/router_level3_1/vc_allocator | Input requests = [ 5 -> [ 49@0 50@0 51@0 ]  17 -> [ 44@0 45@0 46@0 47@0 ]  21 -> [ 40@0 41@0 42@0 43@0 ]  24 -> [ 33@0 34@0 35@0 ]  25 -> [ 61@0 62@0 63@0 ]  28 -> [ 61@0 62@0 63@0 ]  ], output requests = [ 33 -> [ 24@0 ]  34 -> [ 24@0 ]  35 -> [ 24@0 ]  40 -> [ 21@0 ]  41 -> [ 21@0 ]  42 -> [ 21@0 ]  43 -> [ 21@0 ]  44 -> [ 17@0 ]  45 -> [ 17@0 ]  46 -> [ 17@0 ]  47 -> [ 17@0 ]  49 -> [ 5@0 ]  50 -> [ 5@0 ]  51 -> [ 5@0 ]  61 -> [ 25@0 28@0 ]  62 -> [ 25@0 28@0 ]  63 -> [ 25@0 28@0 ]  ].
3 | network_0/router_level3_1/vc_allocator | Input grants = [ 5 -> 49  17 -> 44  21 -> 40  24 -> 33  25 -> 61  ], output grants = [ 33 -> 24  40 -> 21  44 -> 17  49 -> 5  61 -> 25  ].
3 | network_0/router_level3_1 | Assigning VC 1 at output 8 to VC 0 at input 6.
3 | network_0/router_level3_1 | VC allocation failed for VC 0 at input 7.
3 | network_0/router_level3_1 | Beginning switch allocation for VC 0 at input 0 (front: 2).
3 | network_0/router_level3_1 |   Requesting output 8.0 (non-spec, pri: 0).
3 | network_0/router_level3_1 | Beginning switch allocation for VC 0 at input 1 (front: 3).
3 | network_0/router_level3_1 |   Requesting output 13.0 (non-spec, pri: 0).
3 | network_0/router_level3_1 | Beginning switch allocation for VC 0 at input 3 (front: 4).
3 | network_0/router_level3_1 |   Requesting output 15.0 (non-spec, pri: 0).
3 | network_0/router_level3_1 | Beginning switch allocation for VC 0 at input 4 (front: 5).
3 | network_0/router_level3_1 |   Requesting output 14.0 (non-spec, pri: 0).
3 | network_0/router_level3_1 | Beginning switch allocation for VC 0 at input 5 (front: 6).
3 | network_0/router_level3_1 |   Requesting output 12.0 (non-spec, pri: 0).
3 | network_0/router_level3_1/sw_allocator | Input requests = [ 0 -> [ 8@0 ]  1 -> [ 13@0 ]  3 -> [ 15@0 ]  4 -> [ 14@0 ]  5 -> [ 12@0 ]  ], output requests = [ 8 -> [ 0@0 ]  12 -> [ 5@0 ]  13 -> [ 1@0 ]  14 -> [ 4@0 ]  15 -> [ 3@0 ]  ].
3 | network_0/router_level3_1/sw_allocator | Input grants = [ 0 -> 8  1 -> 13  3 -> 15  4 -> 14  5 -> 12  ], output grants = [ 8 -> 0  12 -> 5  13 -> 1  14 -> 4  15 -> 3  ].
3 | network_0/router_level3_1 | Assigning output 8.0 to VC 0 at input 0.0.
3 | network_0/router_level3_1 | Assigning output 13.0 to VC 0 at input 1.0.
3 | network_0/router_level3_1 | Assigning output 15.0 to VC 0 at input 3.0.
3 | network_0/router_level3_1 | Assigning output 14.0 to VC 0 at input 4.0.
3 | network_0/router_level3_1 | Assigning output 12.0 to VC 0 at input 5.0.
3 | network_0/router_level3_1 | Completed VC allocation for VC 0 at input 6 (front: 7).
3 | network_0/router_level3_1 |   Acquiring assigned VC 1 at output 8.
3 | network_0/router_level3_1/buf_6/vc_0 | Changing state from vc_alloc to active.
3 | network_0/router_level3_1 | Completed VC allocation for VC 0 at input 7 (front: 8).
3 | network_0/router_level3_1 |   No output VC allocated.
3 | network_0/router_level3_1 | Completed switch allocation for VC 0 at input 0 (front: 2).
3 | network_0/router_level3_1 |   Scheduling switch connection from input 0.0 to output 8.0.
3 | network_0/router_level3_1 | Updating lookahead routing information for flit 2.
3 | network_0/router_level3_1 | Completed switch allocation for VC 0 at input 1 (front: 3).
3 | network_0/router_level3_1 |   Scheduling switch connection from input 1.0 to output 13.0.
3 | network_0/router_level3_1 | Updating lookahead routing information for flit 3.
3 | network_0/router_level3_1 | Completed switch allocation for VC 0 at input 3 (front: 4).
3 | network_0/router_level3_1 |   Scheduling switch connection from input 3.0 to output 15.0.
3 | network_0/router_level3_1 | Updating lookahead routing information for flit 4.
3 | network_0/router_level3_1 | Completed switch allocation for VC 0 at input 4 (front: 5).
3 | network_0/router_level3_1 |   Scheduling switch connection from input 4.0 to output 14.0.
3 | network_0/router_level3_1 | Updating lookahead routing information for flit 5.
3 | network_0/router_level3_1 | Completed switch allocation for VC 0 at input 5 (front: 6).
3 | network_0/router_level3_1 |   Scheduling switch connection from input 5.0 to output 12.0.
3 | network_0/router_level3_1 | Updating lookahead routing information for flit 6.
3 | network_0/router_level3_2 | Beginning switch allocation for VC 0 at input 2 (front: 9).
3 | network_0/router_level3_2 |   Requesting output 8.0 (non-spec, pri: 0).
3 | network_0/router_level3_2 | Beginning switch allocation for VC 0 at input 3 (front: 10).
3 | network_0/router_level3_2 |   Requesting output 10.0 (non-spec, pri: 0).
3 | network_0/router_level3_2/sw_allocator | Input requests = [ 2 -> [ 8@0 ]  3 -> [ 10@0 ]  ], output requests = [ 8 -> [ 2@0 ]  10 -> [ 3@0 ]  ].
3 | network_0/router_level3_2/sw_allocator | Input grants = [ 2 -> 8  3 -> 10  ], output grants = [ 8 -> 2  10 -> 3  ].
3 | network_0/router_level3_2 | Assigning output 8.0 to VC 0 at input 2.0.
3 | network_0/router_level3_2 | Assigning output 10.0 to VC 0 at input 3.0.
3 | network_0/router_level3_2 | Completed switch allocation for VC 0 at input 2 (front: 9).
3 | network_0/router_level3_2 |   Scheduling switch connection from input 2.0 to output 8.0.
3 | network_0/router_level3_2 | Updating lookahead routing information for flit 9.
3 | network_0/router_level3_2 | Completed switch allocation for VC 0 at input 3 (front: 10).
3 | network_0/router_level3_2 |   Scheduling switch connection from input 3.0 to output 10.0.
3 | network_0/router_level3_2 | Updating lookahead routing information for flit 10.
4 | network_0/router_level3_0 | Beginning crossbar traversal for flit 1 from input 5.0 to output 14.0.
4 | network_0/router_level3_0 | Completed crossbar traversal for flit 1 from input 5.0 to output 14.0.
4 | network_0/router_level3_0 | Buffering flit 1 at output 14.
4 | network_0/router_level3_1 | Beginning VC allocation for VC 0 at input 7 (front: 8).
4 | network_0/router_level3_1 |   Requesting VC 0 at output 15 (in_pri: 0, out_pri: 0).
4 | network_0/router_level3_1 |   VC 1 at output 15 is in use by VC 1 at input 6 (front flit: 2000).
4 | network_0/router_level3_1 |   Requesting VC 2 at output 15 (in_pri: 0, out_pri: 0).
4 | network_0/router_level3_1 |   Requesting VC 3 at output 15 (in_pri: 0, out_pri: 0).
4 | network_0/router_level3_1/vc_allocator | Input requests = [ 1 -> [ 56@0 57@0 58@0 59@0 ]  6 -> [ 48@0 50@0 51@0 ]  22 -> [ 56@0 57@0 58@0 59@0 ]  28 -> [ 60@0 62@0 63@0 ]  ], output requests = [ 48 -> [ 6@0 ]  50 -> [ 6@0 ]  51 -> [ 6@0 ]  56 -> [ 1@0 22@0 ]  57 -> [ 1@0 22@0 ]  58 -> [ 1@0 22@0 ]  59 -> [ 1@0 22@0 ]  60 -> [ 28@0 ]  62 -> [ 28@0 ]  63 -> [ 28@0 ]  ].
4 | network_0/router_level3_1/vc_allocator | Input grants = [ 6 -> 48  22 -> 56  28 -> 60  ], output grants = [ 48 -> 6  56 -> 22  60 -> 28  ].
4 | network_0/router_level3_1 | Assigning VC 0 at output 15 to VC 0 at input 7.
4 | network_0/router_level3_1 | Beginning switch allocation for VC 0 at input 6 (front: 7).
4 | network_0/router_level3_1 |   Requesting output 8.0 (non-spec, pri: 0).
4 | network_0/router_level3_1/sw_allocator | Input requests = [ 1 -> [ 12@0 ]  4 -> [ 11@0 ]  5 -> [ 10@0 ]  6 -> [ 8@0 15@0 ]  ], output requests = [ 8 -> [ 6@0 ]  10 -> [ 5@0 ]  11 -> [ 4@0 ]  12 -> [ 1@0 ]  15 -> [ 6@0 ]  ].
4 | network_0/router_level3_1/sw_allocator | Input grants = [ 1 -> 12  4 -> 11  5 -> 10  6 -> 8  ], output grants = [ 8 -> 6  10 -> 5  11 -> 4  12 -> 1  ].
4 | network_0/router_level3_1 | Assigning output 8.0 to VC 0 at input 6.0.
4 | network_0/router_level3_1 | Beginning crossbar traversal for flit 2 from input 0.0 to output 8.0.
4 | network_0/router_level3_1 | Beginning crossbar traversal for flit 3 from input 1.0 to output 13.0.
4 | network_0/router_level3_1 | Beginning crossbar traversal for flit 4 from input 3.0 to output 15.0.
4 | network_0/router_level3_1 | Beginning crossbar traversal for flit 5 from input 4.0 to output 14.0.
4 | network_0/router_level3_1 | Beginning crossbar traversal for flit 6 from input 5.0 to output 12.0.
4 | network_0/router_level3_1 | Completed VC allocation for VC 0 at input 7 (front: 8).
4 | network_0/router_level3_1 |   Acquiring assigned VC 0 at output 15.
4 | network_0/router_level3_1/buf_7/vc_0 | Changing state from vc_alloc to active.
4 | network_0/router_level3_1 | Completed switch allocation for VC 0 at input 6 (front: 7).
4 | network_0/router_level3_1 |   Scheduling switch connection from input 6.0 to output 8.0.
4 | network_0/router_level3_1 | Updating lookahead routing information for flit 7.
4 | network_0/router_level3_1 | Completed crossbar traversal for flit 2 from input 0.0 to output 8.0.
4 | network_0/router_level3_1 | Buffering flit 2 at output 8.
4 | network_0/router_level3_1 | Completed crossbar traversal for flit 3 from input 1.0 to output 13.0.
4 | network_0/router_level3_1 | Buffering flit 3 at output 13.
4 | network_0/router_level3_1 | Completed crossbar traversal for flit 4 from input 3.0 to output 15.0.
4 | network_0/router_level3_1 | Buffering flit 4 at output 15.
4 | network_0/router_level3_1 | Completed crossbar traversal for flit 5 from input 4.0 to output 14.0.
4 | network_0/router_level3_1 | Buffering flit 5 at output 14.
4 | network_0/router_level3_1 | Completed crossbar traversal for flit 6 from input 5.0 to output 12.0.
4 | network_0/router_level3_1 | Buffering flit 6 at output 12.
4 | network_0/router_level3_2 | Beginning crossbar traversal for flit 9 from input 2.0 to output 8.0.
4 | network_0/router_level3_2 | Beginning crossbar traversal for flit 10 from input 3.0 to output 10.0.
4 | network_0/router_level3_2 | Completed crossbar traversal for flit 9 from input 2.0 to output 8.0.
4 | network_0/router_level3_2 | Buffering flit 9 at output 8.
4 | network_0/router_level3_2 | Completed crossbar traversal for flit 10 from input 3.0 to output 10.0.
4 | network_0/router_level3_2 | Buffering flit 10 at output 10.
4 | network_0/router_level3_0 | Sending flit 1 to channel at output 14.
4 | network_0/router_level3_1 | Sending flit 2 to channel at output 8.
4 | network_0/router_level3_1 | Sending flit 6 to channel at output 12.
4 | network_0/router_level3_1 | Sending flit 3 to channel at output 13.
4 | network_0/router_level3_1 | Sending flit 5 to channel at output 14.
4 | network_0/router_level3_1 | Sending flit 4 to channel at output 15.
4 | network_0/router_level3_2 | Sending flit 9 to channel at output 8.
4 | network_0/router_level3_2 | Sending flit 10 to channel at output 10.
5 | network_0/network_0_fchan_20486 | Beginning channel traversal for flit 1 with delay 1.
5 | network_0/network_0_fchan_20488 | Beginning channel traversal for flit 2 with delay 1.
5 | network_0/network_0_fchan_20492 | Beginning channel traversal for flit 6 with delay 1.
5 | network_0/network_0_fchan_20493 | Beginning channel traversal for flit 3 with delay 1.
5 | network_0/network_0_fchan_20494 | Beginning channel traversal for flit 5 with delay 1.
5 | network_0/network_0_fchan_20495 | Beginning channel traversal for flit 4 with delay 1.
5 | network_0/network_0_fchan_20496 | Beginning channel traversal for flit 9 with delay 1.
5 | network_0/network_0_fchan_20498 | Beginning channel traversal for flit 10 with delay 1.
5 | network_0/router_level3_1 | Beginning switch allocation for VC 0 at input 7 (front: 8).
5 | network_0/router_level3_1 |   Requesting output 15.0 (non-spec, pri: 0).
5 | network_0/router_level3_1/sw_allocator | Input requests = [ 1 -> [ 12@0 ]  5 -> [ 14@0 ]  6 -> [ 15@0 ]  7 -> [ 15@0 ]  ], output requests = [ 12 -> [ 1@0 ]  14 -> [ 5@0 ]  15 -> [ 6@0 7@0 ]  ].
5 | network_0/router_level3_1/sw_allocator | Input grants = [ 1 -> 12  5 -> 14  6 -> 15  ], output grants = [ 12 -> 1  14 -> 5  15 -> 6  ].
5 | network_0/router_level3_1 | Switch allocation failed for VC 0 at input 7: No output granted.
5 | network_0/router_level3_1 | Beginning crossbar traversal for flit 7 from input 6.0 to output 8.0.
5 | network_0/router_level3_1 | Completed switch allocation for VC 0 at input 7 (front: 8).
5 | network_0/router_level3_1 |   No output port allocated.
5 | network_0/router_level3_1 | Completed crossbar traversal for flit 7 from input 6.0 to output 8.0.
5 | network_0/router_level3_1 | Buffering flit 7 at output 8.
5 | network_0/network_0_fchan_20486 | Completed channel traversal for flit 1.
5 | network_0/network_0_fchan_20488 | Completed channel traversal for flit 2.
5 | network_0/network_0_fchan_20492 | Completed channel traversal for flit 6.
5 | network_0/network_0_fchan_20493 | Completed channel traversal for flit 3.
5 | network_0/network_0_fchan_20494 | Completed channel traversal for flit 5.
5 | network_0/network_0_fchan_20495 | Completed channel traversal for flit 4.
5 | network_0/network_0_fchan_20496 | Completed channel traversal for flit 9.
5 | network_0/network_0_fchan_20498 | Completed channel traversal for flit 10.
5 | network_0/router_level3_1 | Sending flit 7 to channel at output 8.
6 | network_0/network_0_fchan_20488 | Beginning channel traversal for flit 7 with delay 1.
6 | network_0/router_level2_0 | Received flit 2 from channel at input 1.
6 | network_0/router_level2_0 | Received flit 9 from channel at input 2.
6 | network_0/router_level2_2 | Received flit 10 from channel at input 2.
6 | network_0/router_level2_4 | Received flit 6 from channel at input 1.
6 | network_0/router_level2_5 | Received flit 3 from channel at input 1.
6 | network_0/router_level2_6 | Received flit 1 from channel at input 0.
6 | network_0/router_level2_6 | Received flit 5 from channel at input 1.
6 | network_0/router_level2_7 | Received flit 4 from channel at input 1.
6 | network_0/router_level2_0 | Adding flit 2 to VC 0 at input 1 (state: idle, empty).
6 | network_0/router_level2_0 | Using precomputed lookahead routing information for VC 0 at input 1 (front: 2).
6 | network_0/router_level2_0/buf_1/vc_0 | Changing state from idle to vc_alloc.
6 | network_0/router_level2_0 | Adding flit 9 to VC 0 at input 2 (state: idle, empty).
6 | network_0/router_level2_0 | Using precomputed lookahead routing information for VC 0 at input 2 (front: 9).
6 | network_0/router_level2_0/buf_2/vc_0 | Changing state from idle to vc_alloc.
6 | network_0/router_level2_0 | Beginning VC allocation for VC 0 at input 1 (front: 2).
6 | network_0/router_level2_0 |   Requesting VC 0 at output 15 (in_pri: 0, out_pri: 0).
6 | network_0/router_level2_0 |   Requesting VC 1 at output 15 (in_pri: 0, out_pri: 0).
6 | network_0/router_level2_0 |   Requesting VC 2 at output 15 (in_pri: 0, out_pri: 0).
6 | network_0/router_level2_0 |   Requesting VC 3 at output 15 (in_pri: 0, out_pri: 0).
6 | network_0/router_level2_0 | Beginning VC allocation for VC 0 at input 2 (front: 9).
6 | network_0/router_level2_0 |   Requesting VC 0 at output 10 (in_pri: 0, out_pri: 0).
6 | network_0/router_level2_0 |   Requesting VC 1 at output 10 (in_pri: 0, out_pri: 0).
6 | network_0/router_level2_0 |   Requesting VC 2 at output 10 (in_pri: 0, out_pri: 0).
6 | network_0/router_level2_0 |   Requesting VC 3 at output 10 (in_pri: 0, out_pri: 0).
6 | network_0/router_level2_0/vc_allocator | Input requests = [ 0 -> [ 60@0 61@0 62@0 63@0 ]  4 -> [ 60@0 61@0 62@0 63@0 ]  8 -> [ 40@0 41@0 42@0 43@0 ]  28 -> [ 40@0 41@0 42@0 43@0 ]  ], output requests = [ 40 -> [ 8@0 28@0 ]  41 -> [ 8@0 28@0 ]  42 -> [ 8@0 28@0 ]  43 -> [ 8@0 28@0 ]  60 -> [ 0@0 4@0 ]  61 -> [ 0@0 4@0 ]  62 -> [ 0@0 4@0 ]  63 -> [ 0@0 4@0 ]  ].
6 | network_0/router_level2_0/vc_allocator | Input grants = [ 0 -> 60  8 -> 40  ], output grants = [ 40 -> 8  60 -> 0  ].
6 | network_0/router_level2_0 | VC allocation failed for VC 0 at input 1.
6 | network_0/router_level2_0 | Assigning VC 0 at output 10 to VC 0 at input 2.
6 | network_0/router_level2_0 | Completed VC allocation for VC 0 at input 1 (front: 2).
6 | network_0/router_level2_0 |   No output VC allocated.
6 | network_0/router_level2_0 | Completed VC allocation for VC 0 at input 2 (front: 9).
6 | network_0/router_level2_0 |   Acquiring assigned VC 0 at output 10.
6 | network_0/router_level2_0/buf_2/vc_0 | Changing state from vc_alloc to active.
6 | network_0/router_level2_2 | Adding flit 10 to VC 0 at input 2 (state: idle, empty).
6 | network_0/router_level2_2 | Using precomputed lookahead routing information for VC 0 at input 2 (front: 10).
6 | network_0/router_level2_2/buf_2/vc_0 | Changing state from idle to vc_alloc.
6 | network_0/router_level2_2 | Beginning VC allocation for VC 0 at input 2 (front: 10).
6 | network_0/router_level2_2 |   Requesting VC 0 at output 8 (in_pri: 0, out_pri: 0).
6 | network_0/router_level2_2 |   Requesting VC 1 at output 8 (in_pri: 0, out_pri: 0).
6 | network_0/router_level2_2 |   Requesting VC 2 at output 8 (in_pri: 0, out_pri: 0).
6 | network_0/router_level2_2 |   Requesting VC 3 at output 8 (in_pri: 0, out_pri: 0).
6 | network_0/router_level2_2/vc_allocator | Input requests = [ 8 -> [ 32@0 33@0 34@0 35@0 ]  12 -> [ 36@0 37@0 38@0 39@0 ]  20 -> [ 56@0 57@0 58@0 59@0 ]  ], output requests = [ 32 -> [ 8@0 ]  33 -> [ 8@0 ]  34 -> [ 8@0 ]  35 -> [ 8@0 ]  36 -> [ 12@0 ]  37 -> [ 12@0 ]  38 -> [ 12@0 ]  39 -> [ 12@0 ]  56 -> [ 20@0 ]  57 -> [ 20@0 ]  58 -> [ 20@0 ]  59 -> [ 20@0 ]  ].
6 | network_0/router_level2_2/vc_allocator | Input grants = [ 8 -> 32  12 -> 36  20 -> 56  ], output grants = [ 32 -> 8  36 -> 12  56 -> 20  ].
6 | network_0/router_level2_2 | Assigning VC 0 at output 8 to VC 0 at input 2.
6 | network_0/router_level2_2 | Completed VC allocation for VC 0 at input 2 (front: 10).
6 | network_0/router_level2_2 |   Acquiring assigned VC 0 at output 8.
6 | network_0/router_level2_2/buf_2/vc_0 | Changing state from vc_alloc to active.
6 | network_0/router_level2_4 | Adding flit 6 to VC 0 at input 1 (state: idle, empty).
6 | network_0/router_level2_4 | Using precomputed lookahead routing information for VC 0 at input 1 (front: 6).
6 | network_0/router_level2_4/buf_1/vc_0 | Changing state from idle to vc_alloc.
6 | network_0/router_level2_4 | Beginning VC allocation for VC 0 at input 1 (front: 6).
6 | network_0/router_level2_4 |   Requesting VC 0 at output 12 (in_pri: 0, out_pri: 0).
6 | network_0/router_level2_4 |   Requesting VC 1 at output 12 (in_pri: 0, out_pri: 0).
6 | network_0/router_level2_4 |   Requesting VC 2 at output 12 (in_pri: 0, out_pri: 0).
6 | network_0/router_level2_4 |   Requesting VC 3 at output 12 (in_pri: 0, out_pri: 0).
6 | network_0/router_level2_4/vc_allocator | Input requests = [ 4 -> [ 48@0 49@0 50@0 51@0 ]  20 -> [ 52@0 53@0 54@0 55@0 ]  24 -> [ 32@0 33@0 34@0 35@0 ]  ], output requests = [ 32 -> [ 24@0 ]  33 -> [ 24@0 ]  34 -> [ 24@0 ]  35 -> [ 24@0 ]  48 -> [ 4@0 ]  49 -> [ 4@0 ]  50 -> [ 4@0 ]  51 -> [ 4@0 ]  52 -> [ 20@0 ]  53 -> [ 20@0 ]  54 -> [ 20@0 ]  55 -> [ 20@0 ]  ].
6 | network_0/router_level2_4/vc_allocator | Input grants = [ 4 -> 48  20 -> 52  24 -> 32  ], output grants = [ 32 -> 24  48 -> 4  52 -> 20  ].
6 | network_0/router_level2_4 | Assigning VC 0 at output 12 to VC 0 at input 1.
6 | network_0/router_level2_4 | Completed VC allocation for VC 0 at input 1 (front: 6).
6 | network_0/router_level2_4 |   Acquiring assigned VC 0 at output 12.
6 | network_0/router_level2_4/buf_1/vc_0 | Changing state from vc_alloc to active.
6 | network_0/router_level2_5 | Adding flit 3 to VC 0 at input 1 (state: idle, empty).
6 | network_0/router_level2_5 | Using precomputed lookahead routing information for VC 0 at input 1 (front: 3).
6 | network_0/router_level2_5/buf_1/vc_0 | Changing state from idle to vc_alloc.
6 | network_0/router_level2_5 | Beginning VC allocation for VC 0 at input 1 (front: 3).
6 | network_0/router_level2_5 |   Requesting VC 0 at output 14 (in_pri: 0, out_pri: 0).
6 | network_0/router_level2_5 |   Requesting VC 1 at output 14 (in_pri: 0, out_pri: 0).
6 | network_0/router_level2_5 |   Requesting VC 2 at output 14 (in_pri: 0, out_pri: 0).
6 | network_0/router_level2_5 |   Requesting VC 3 at output 14 (in_pri: 0, out_pri: 0).
6 | network_0/router_level2_5/vc_allocator | Input requests = [ 4 -> [ 56@0 57@0 58@0 59@0 ]  12 -> [ 44@0 45@0 46@0 47@0 ]  28 -> [ 32@0 33@0 34@0 35@0 ]  ], output requests = [ 32 -> [ 28@0 ]  33 -> [ 28@0 ]  34 -> [ 28@0 ]  35 -> [ 28@0 ]  44 -> [ 12@0 ]  45 -> [ 12@0 ]  46 -> [ 12@0 ]  47 -> [ 12@0 ]  56 -> [ 4@0 ]  57 -> [ 4@0 ]  58 -> [ 4@0 ]  59 -> [ 4@0 ]  ].
6 | network_0/router_level2_5/vc_allocator | Input grants = [ 4 -> 56  12 -> 44  28 -> 32  ], output grants = [ 32 -> 28  44 -> 12  56 -> 4  ].
6 | network_0/router_level2_5 | Assigning VC 0 at output 14 to VC 0 at input 1.
6 | network_0/router_level2_5 | Completed VC allocation for VC 0 at input 1 (front: 3).
6 | network_0/router_level2_5 |   Acquiring assigned VC 0 at output 14.
6 | network_0/router_level2_5/buf_1/vc_0 | Changing state from vc_alloc to active.
6 | network_0/router_level2_6 | Adding flit 1 to VC 0 at input 0 (state: idle, empty).
6 | network_0/router_level2_6 | Using precomputed lookahead routing information for VC 0 at input 0 (front: 1).
6 | network_0/router_level2_6/buf_0/vc_0 | Changing state from idle to vc_alloc.
6 | network_0/router_level2_6 | Adding flit 5 to VC 0 at input 1 (state: idle, empty).
6 | network_0/router_level2_6 | Using precomputed lookahead routing information for VC 0 at input 1 (front: 5).
6 | network_0/router_level2_6/buf_1/vc_0 | Changing state from idle to vc_alloc.
6 | network_0/router_level2_6 | Beginning VC allocation for VC 0 at input 0 (front: 1).
6 | network_0/router_level2_6 |   Requesting VC 0 at output 11 (in_pri: 0, out_pri: 0).
6 | network_0/router_level2_6 |   Requesting VC 1 at output 11 (in_pri: 0, out_pri: 0).
6 | network_0/router_level2_6 |   Requesting VC 2 at output 11 (in_pri: 0, out_pri: 0).
6 | network_0/router_level2_6 |   Requesting VC 3 at output 11 (in_pri: 0, out_pri: 0).
6 | network_0/router_level2_6 | Beginning VC allocation for VC 0 at input 1 (front: 5).
6 | network_0/router_level2_6 |   Requesting VC 0 at output 15 (in_pri: 0, out_pri: 0).
6 | network_0/router_level2_6 |   Requesting VC 1 at output 15 (in_pri: 0, out_pri: 0).
6 | network_0/router_level2_6 |   Requesting VC 2 at output 15 (in_pri: 0, out_pri: 0).
6 | network_0/router_level2_6 |   Requesting VC 3 at output 15 (in_pri: 0, out_pri: 0).
6 | network_0/router_level2_6/vc_allocator | Input requests = [ 0 -> [ 44@0 45@0 46@0 47@0 ]  4 -> [ 60@0 61@0 62@0 63@0 ]  12 -> [ 32@0 33@0 34@0 35@0 ]  24 -> [ 40@0 41@0 42@0 43@0 ]  ], output requests = [ 32 -> [ 12@0 ]  33 -> [ 12@0 ]  34 -> [ 12@0 ]  35 -> [ 12@0 ]  40 -> [ 24@0 ]  41 -> [ 24@0 ]  42 -> [ 24@0 ]  43 -> [ 24@0 ]  44 -> [ 0@0 ]  45 -> [ 0@0 ]  46 -> [ 0@0 ]  47 -> [ 0@0 ]  60 -> [ 4@0 ]  61 -> [ 4@0 ]  62 -> [ 4@0 ]  63 -> [ 4@0 ]  ].
6 | network_0/router_level2_6/vc_allocator | Input grants = [ 0 -> 44  4 -> 60  12 -> 32  24 -> 40  ], output grants = [ 32 -> 12  40 -> 24  44 -> 0  60 -> 4  ].
6 | network_0/router_level2_6 | Assigning VC 0 at output 11 to VC 0 at input 0.
6 | network_0/router_level2_6 | Assigning VC 0 at output 15 to VC 0 at input 1.
6 | network_0/router_level2_6 | Completed VC allocation for VC 0 at input 0 (front: 1).
6 | network_0/router_level2_6 |   Acquiring assigned VC 0 at output 11.
6 | network_0/router_level2_6/buf_0/vc_0 | Changing state from vc_alloc to active.
6 | network_0/router_level2_6 | Completed VC allocation for VC 0 at input 1 (front: 5).
6 | network_0/router_level2_6 |   Acquiring assigned VC 0 at output 15.
6 | network_0/router_level2_6/buf_1/vc_0 | Changing state from vc_alloc to active.
6 | network_0/router_level2_7 | Adding flit 4 to VC 0 at input 1 (state: idle, empty).
6 | network_0/router_level2_7 | Using precomputed lookahead routing information for VC 0 at input 1 (front: 4).
6 | network_0/router_level2_7/buf_1/vc_0 | Changing state from idle to vc_alloc.
6 | network_0/router_level2_7 | Beginning VC allocation for VC 0 at input 1 (front: 4).
6 | network_0/router_level2_7 |   Requesting VC 0 at output 10 (in_pri: 0, out_pri: 0).
6 | network_0/router_level2_7 |   Requesting VC 1 at output 10 (in_pri: 0, out_pri: 0).
6 | network_0/router_level2_7 |   Requesting VC 2 at output 10 (in_pri: 0, out_pri: 0).
6 | network_0/router_level2_7 |   Requesting VC 3 at output 10 (in_pri: 0, out_pri: 0).
6 | network_0/router_level2_7/vc_allocator | Input requests = [ 4 -> [ 40@0 41@0 42@0 43@0 ]  20 -> [ 44@0 45@0 46@0 47@0 ]  ], output requests = [ 40 -> [ 4@0 ]  41 -> [ 4@0 ]  42 -> [ 4@0 ]  43 -> [ 4@0 ]  44 -> [ 20@0 ]  45 -> [ 20@0 ]  46 -> [ 20@0 ]  47 -> [ 20@0 ]  ].
6 | network_0/router_level2_7/vc_allocator | Input grants = [ 4 -> 40  20 -> 44  ], output grants = [ 40 -> 4  44 -> 20  ].
6 | network_0/router_level2_7 | Assigning VC 0 at output 10 to VC 0 at input 1.
6 | network_0/router_level2_7 | Completed VC allocation for VC 0 at input 1 (front: 4).
6 | network_0/router_level2_7 |   Acquiring assigned VC 0 at output 10.
6 | network_0/router_level2_7/buf_1/vc_0 | Changing state from vc_alloc to active.
6 | network_0/router_level3_1 | Beginning switch allocation for VC 0 at input 7 (front: 8).
6 | network_0/router_level3_1 |   Requesting output 15.0 (non-spec, pri: 0).
6 | network_0/router_level3_1/sw_allocator | Input requests = [ 0 -> [ 14@0 ]  2 -> [ 15@0 ]  4 -> [ 9@0 ]  6 -> [ 8@0 ]  7 -> [ 15@0 ]  ], output requests = [ 8 -> [ 6@0 ]  9 -> [ 4@0 ]  14 -> [ 0@0 ]  15 -> [ 2@0 7@0 ]  ].
6 | network_0/router_level3_1/sw_allocator | Input grants = [ 0 -> 14  4 -> 9  6 -> 8  7 -> 15  ], output grants = [ 8 -> 6  9 -> 4  14 -> 0  15 -> 7  ].
6 | network_0/router_level3_1 | Assigning output 15.0 to VC 0 at input 7.0.
6 | network_0/router_level3_1 | Completed switch allocation for VC 0 at input 7 (front: 8).
6 | network_0/router_level3_1 |   Scheduling switch connection from input 7.0 to output 15.0.
6 | network_0/router_level3_1 | Updating lookahead routing information for flit 8.
6 | network_0/network_0_fchan_20488 | Completed channel traversal for flit 7.
7 | network_0/router_level2_0 | Received flit 7 from channel at input 1.
7 | network_0/router_level2_0 | Adding flit 7 to VC 1 at input 1 (state: idle, empty).
7 | network_0/router_level2_0 | Using precomputed lookahead routing information for VC 1 at input 1 (front: 7).
7 | network_0/router_level2_0/buf_1/vc_1 | Changing state from idle to vc_alloc.
7 | network_0/router_level2_0 | Beginning VC allocation for VC 0 at input 1 (front: 2).
7 | network_0/router_level2_0 |   VC 0 at output 15 is in use by VC 0 at input 0 (front flit: 0).
7 | network_0/router_level2_0 |   Requesting VC 1 at output 15 (in_pri: 0, out_pri: 0).
7 | network_0/router_level2_0 |   Requesting VC 2 at output 15 (in_pri: 0, out_pri: 0).
7 | network_0/router_level2_0 |   Requesting VC 3 at output 15 (in_pri: 0, out_pri: 0).
7 | network_0/router_level2_0 | Beginning VC allocation for VC 1 at input 1 (front: 7).
7 | network_0/router_level2_0 |   Requesting VC 0 at output 12 (in_pri: 0, out_pri: 0).
7 | network_0/router_level2_0 |   Requesting VC 1 at output 12 (in_pri: 0, out_pri: 0).
7 | network_0/router_level2_0 |   Requesting VC 2 at output 12 (in_pri: 0, out_pri: 0).
7 | network_0/router_level2_0 |   Requesting VC 3 at output 12 (in_pri: 0, out_pri: 0).
7 | network_0/router_level2_0/vc_allocator | Input requests = [ 1 -> [ 61@0 62@0 63@0 ]  4 -> [ 61@0 62@0 63@0 ]  5 -> [ 48@0 49@0 50@0 51@0 ]  9 -> [ 56@0 57@0 58@0 59@0 ]  16 -> [ 52@0 53@0 54@0 55@0 ]  24 -> [ 32@0 33@0 34@0 35@0 ]  28 -> [ 41@0 42@0 43@0 ]  29 -> [ 32@0 33@0 34@0 35@0 ]  ], output requests = [ 32 -> [ 24@0 29@0 ]  33 -> [ 24@0 29@0 ]  34 -> [ 24@0 29@0 ]  35 -> [ 24@0 29@0 ]  41 -> [ 28@0 ]  42 -> [ 28@0 ]  43 -> [ 28@0 ]  48 -> [ 5@0 ]  49 -> [ 5@0 ]  50 -> [ 5@0 ]  51 -> [ 5@0 ]  52 -> [ 16@0 ]  53 -> [ 16@0 ]  54 -> [ 16@0 ]  55 -> [ 16@0 ]  56 -> [ 9@0 ]  57 -> [ 9@0 ]  58 -> [ 9@0 ]  59 -> [ 9@0 ]  61 -> [ 1@0 4@0 ]  62 -> [ 1@0 4@0 ]  63 -> [ 1@0 4@0 ]  ].
7 | network_0/router_level2_0/vc_allocator | Input grants = [ 1 -> 61  5 -> 48  9 -> 56  16 -> 52  24 -> 32  28 -> 41  ], output grants = [ 32 -> 24  41 -> 28  48 -> 5  52 -> 16  56 -> 9  61 -> 1  ].
7 | network_0/router_level2_0 | VC allocation failed for VC 0 at input 1.
7 | network_0/router_level2_0 | Assigning VC 0 at output 12 to VC 1 at input 1.
7 | network_0/router_level2_0 | Beginning switch allocation for VC 0 at input 2 (front: 9).
7 | network_0/router_level2_0 |   Requesting output 10.0 (non-spec, pri: 0).
7 | network_0/router_level2_0/sw_allocator | Input requests = [ 0 -> [ 15@0 ]  2 -> [ 10@0 ]  ], output requests = [ 10 -> [ 2@0 ]  15 -> [ 0@0 ]  ].
7 | network_0/router_level2_0/sw_allocator | Input grants = [ 0 -> 15  2 -> 10  ], output grants = [ 10 -> 2  15 -> 0  ].
7 | network_0/router_level2_0 | Assigning output 10.0 to VC 0 at input 2.0.
7 | network_0/router_level2_0 | Completed VC allocation for VC 0 at input 1 (front: 2).
7 | network_0/router_level2_0 |   No output VC allocated.
7 | network_0/router_level2_0 | Completed VC allocation for VC 1 at input 1 (front: 7).
7 | network_0/router_level2_0 |   Acquiring assigned VC 0 at output 12.
7 | network_0/router_level2_0/buf_1/vc_1 | Changing state from vc_alloc to active.
7 | network_0/router_level2_0 | Completed switch allocation for VC 0 at input 2 (front: 9).
7 | network_0/router_level2_0 |   Scheduling switch connection from input 2.0 to output 10.0.
7 | network_0/router_level2_0 | Updating lookahead routing information for flit 9.
7 | network_0/router_level2_2 | Beginning switch allocation for VC 0 at input 2 (front: 10).
7 | network_0/router_level2_2 |   Requesting output 8.0 (non-spec, pri: 0).
7 | network_0/router_level2_2/sw_allocator | Input requests = [ 2 -> [ 8@0 ]  3 -> [ 9@0 ]  5 -> [ 14@0 ]  ], output requests = [ 8 -> [ 2@0 ]  9 -> [ 3@0 ]  14 -> [ 5@0 ]  ].
7 | network_0/router_level2_2/sw_allocator | Input grants = [ 2 -> 8  3 -> 9  5 -> 14  ], output grants = [ 8 -> 2  9 -> 3  14 -> 5  ].
7 | network_0/router_level2_2 | Assigning output 8.0 to VC 0 at input 2.0.
7 | network_0/router_level2_2 | Completed switch allocation for VC 0 at input 2 (front: 10).
7 | network_0/router_level2_2 |   Scheduling switch connection from input 2.0 to output 8.0.
7 | network_0/router_level2_2 | Updating lookahead routing information for flit 10.
7 | network_0/router_level2_4 | Beginning switch allocation for VC 0 at input 1 (front: 6).
7 | network_0/router_level2_4 |   Requesting output 12.0 (non-spec, pri: 0).
7 | network_0/router_level2_4/sw_allocator | Input requests = [ 1 -> [ 12@0 ]  5 -> [ 13@0 ]  6 -> [ 8@0 ]  ], output requests = [ 8 -> [ 6@0 ]  12 -> [ 1@0 ]  13 -> [ 5@0 ]  ].
7 | network_0/router_level2_4/sw_allocator | Input grants = [ 1 -> 12  5 -> 13  6 -> 8  ], output grants = [ 8 -> 6  12 -> 1  13 -> 5  ].
7 | network_0/router_level2_4 | Assigning output 12.0 to VC 0 at input 1.0.
7 | network_0/router_level2_4 | Completed switch allocation for VC 0 at input 1 (front: 6).
7 | network_0/router_level2_4 |   Scheduling switch connection from input 1.0 to output 12.0.
7 | network_0/router_level2_4 | Updating lookahead routing information for flit 6.
7 | network_0/router_level2_5 | Beginning switch allocation for VC 0 at input 1 (front: 3).
7 | network_0/router_level2_5 |   Requesting output 14.0 (non-spec, pri: 0).
7 | network_0/router_level2_5/sw_allocator | Input requests = [ 1 -> [ 14@0 ]  3 -> [ 11@0 ]  7 -> [ 8@0 ]  ], output requests = [ 8 -> [ 7@0 ]  11 -> [ 3@0 ]  14 -> [ 1@0 ]  ].
7 | network_0/router_level2_5/sw_allocator | Input grants = [ 1 -> 14  3 -> 11  7 -> 8  ], output grants = [ 8 -> 7  11 -> 3  14 -> 1  ].
7 | network_0/router_level2_5 | Assigning output 14.0 to VC 0 at input 1.0.
7 | network_0/router_level2_5 | Completed switch allocation for VC 0 at input 1 (front: 3).
7 | network_0/router_level2_5 |   Scheduling switch connection from input 1.0 to output 14.0.
7 | network_0/router_level2_5 | Updating lookahead routing information for flit 3.
7 | network_0/router_level2_6 | Beginning switch allocation for VC 0 at input 0 (front: 1).
7 | network_0/router_level2_6 |   Requesting output 11.0 (non-spec, pri: 0).
7 | network_0/router_level2_6 | Beginning switch allocation for VC 0 at input 1 (front: 5).
7 | network_0/router_level2_6 |   Requesting output 15.0 (non-spec, pri: 0).
7 | network_0/router_level2_6/sw_allocator | Input requests = [ 0 -> [ 11@0 ]  1 -> [ 15@0 ]  3 -> [ 8@0 ]  6 -> [ 10@0 ]  ], output requests = [ 8 -> [ 3@0 ]  10 -> [ 6@0 ]  11 -> [ 0@0 ]  15 -> [ 1@0 ]  ].
7 | network_0/router_level2_6/sw_allocator | Input grants = [ 0 -> 11  1 -> 15  3 -> 8  6 -> 10  ], output grants = [ 8 -> 3  10 -> 6  11 -> 0  15 -> 1  ].
7 | network_0/router_level2_6 | Assigning output 11.0 to VC 0 at input 0.0.
7 | network_0/router_level2_6 | Assigning output 15.0 to VC 0 at input 1.0.
7 | network_0/router_level2_6 | Completed switch allocation for VC 0 at input 0 (front: 1).
7 | network_0/router_level2_6 |   Scheduling switch connection from input 0.0 to output 11.0.
7 | network_0/router_level2_6 | Updating lookahead routing information for flit 1.
7 | network_0/router_level2_6 | Completed switch allocation for VC 0 at input 1 (front: 5).
7 | network_0/router_level2_6 |   Scheduling switch connection from input 1.0 to output 15.0.
7 | network_0/router_level2_6 | Updating lookahead routing information for flit 5.
7 | network_0/router_level2_7 | Beginning switch allocation for VC 0 at input 1 (front: 4).
7 | network_0/router_level2_7 |   Requesting output 10.0 (non-spec, pri: 0).
7 | network_0/router_level2_7/sw_allocator | Input requests = [ 1 -> [ 10@0 ]  5 -> [ 11@0 ]  ], output requests = [ 10 -> [ 1@0 ]  11 -> [ 5@0 ]  ].
7 | network_0/router_level2_7/sw_allocator | Input grants = [ 1 -> 10  5 -> 11  ], output grants = [ 10 -> 1  11 -> 5  ].
7 | network_0/router_level2_7 | Assigning output 10.0 to VC 0 at input 1.0.
7 | network_0/router_level2_7 | Completed switch allocation for VC 0 at input 1 (front: 4).
7 | network_0/router_level2_7 |   Scheduling switch connection from input 1.0 to output 10.0.
7 | network_0/router_level2_7 | Updating lookahead routing information for flit 4.
7 | network_0/router_level3_1 | Beginning crossbar traversal for flit 8 from input 7.0 to output 15.0.
7 | network_0/router_level3_1 | Completed crossbar traversal for flit 8 from input 7.0 to output 15.0.
7 | network_0/router_level3_1 | Buffering flit 8 at output 15.
7 | network_0/router_level3_1 | Sending flit 8 to channel at output 15.
8 | network_0/network_0_fchan_20495 | Beginning channel traversal for flit 8 with delay 1.
8 | network_0/router_level2_0 | Beginning VC allocation for VC 0 at input 1 (front: 2).
8 | network_0/router_level2_0 |   Requesting VC 0 at output 15 (in_pri: 0, out_pri: 0).
8 | network_0/router_level2_0 |   VC 1 at output 15 is in use by VC 1 at input 0 (front flit: 1990).
8 | network_0/router_level2_0 |   Requesting VC 2 at output 15 (in_pri: 0, out_pri: 0).
8 | network_0/router_level2_0 |   Requesting VC 3 at output 15 (in_pri: 0, out_pri: 0).
8 | network_0/router_level2_0/vc_allocator | Input requests = [ 4 -> [ 60@0 62@0 63@0 ]  17 -> [ 36@0 37@0 38@0 39@0 ]  29 -> [ 33@0 34@0 35@0 ]  ], output requests = [ 33 -> [ 29@0 ]  34 -> [ 29@0 ]  35 -> [ 29@0 ]  36 -> [ 17@0 ]  37 -> [ 17@0 ]  38 -> [ 17@0 ]  39 -> [ 17@0 ]  60 -> [ 4@0 ]  62 -> [ 4@0 ]  63 -> [ 4@0 ]  ].
8 | network_0/router_level2_0/vc_allocator | Input grants = [ 4 -> 60  17 -> 36  29 -> 33  ], output grants = [ 33 -> 29  36 -> 17  60 -> 4  ].
8 | network_0/router_level2_0 | Assigning VC 0 at output 15 to VC 0 at input 1.
8 | network_0/router_level2_0 | Beginning switch allocation for VC 1 at input 1 (front: 7).
8 | network_0/router_level2_0 |   Requesting output 12.0 (non-spec, pri: 0).
8 | network_0/router_level2_0/sw_allocator | Input requests = [ 0 -> [ 15@0 ]  1 -> [ 12@0 ]  2 -> [ 14@0 ]  4 -> [ 13@0 ]  6 -> [ 8@0 ]  7 -> [ 10@0 ]  ], output requests = [ 8 -> [ 6@0 ]  10 -> [ 7@0 ]  12 -> [ 1@0 ]  13 -> [ 4@0 ]  14 -> [ 2@0 ]  15 -> [ 0@0 ]  ].
8 | network_0/router_level2_0/sw_allocator | Input grants = [ 0 -> 15  1 -> 12  2 -> 14  4 -> 13  6 -> 8  7 -> 10  ], output grants = [ 8 -> 6  10 -> 7  12 -> 1  13 -> 4  14 -> 2  15 -> 0  ].
8 | network_0/router_level2_0 | Assigning output 12.0 to VC 1 at input 1.0.
8 | network_0/router_level2_0 | Beginning crossbar traversal for flit 9 from input 2.0 to output 10.0.
8 | network_0/router_level2_0 | Completed VC allocation for VC 0 at input 1 (front: 2).
8 | network_0/router_level2_0 |   Acquiring assigned VC 0 at output 15.
8 | network_0/router_level2_0/buf_1/vc_0 | Changing state from vc_alloc to active.
8 | network_0/router_level2_0 | Completed switch allocation for VC 1 at input 1 (front: 7).
8 | network_0/router_level2_0 |   Scheduling switch connection from input 1.0 to output 12.0.
8 | network_0/router_level2_0 | Updating lookahead routing information for flit 7.
8 | network_0/router_level2_0 | Completed crossbar traversal for flit 9 from input 2.0 to output 10.0.
8 | network_0/router_level2_0 | Buffering flit 9 at output 10.
8 | network_0/router_level2_2 | Beginning crossbar traversal for flit 10 from input 2.0 to output 8.0.
8 | network_0/router_level2_2 | Completed crossbar traversal for flit 10 from input 2.0 to output 8.0.
8 | network_0/router_level2_2 | Buffering flit 10 at output 8.
8 | network_0/router_level2_4 | Beginning crossbar traversal for flit 6 from input 1.0 to output 12.0.
8 | network_0/router_level2_4 | Completed crossbar traversal for flit 6 from input 1.0 to output 12.0.
8 | network_0/router_level2_4 | Buffering flit 6 at output 12.
8 | network_0/router_level2_5 | Beginning crossbar traversal for flit 3 from input 1.0 to output 14.0.
8 | network_0/router_level2_5 | Completed crossbar traversal for flit 3 from input 1.0 to output 14.0.
8 | network_0/router_level2_5 | Buffering flit 3 at output 14.
8 | network_0/router_level2_6 | Beginning crossbar traversal for flit 1 from input 0.0 to output 11.0.
8 | network_0/router_level2_6 | Beginning crossbar traversal for flit 5 from input 1.0 to output 15.0.
8 | network_0/router_level2_6 | Completed crossbar traversal for flit 1 from input 0.0 to output 11.0.
8 | network_0/router_level2_6 | Buffering flit 1 at output 11.
8 | network_0/router_level2_6 | Completed crossbar traversal for flit 5 from input 1.0 to output 15.0.
8 | network_0/router_level2_6 | Buffering flit 5 at output 15.
8 | network_0/router_level2_7 | Beginning crossbar traversal for flit 4 from input 1.0 to output 10.0.
8 | network_0/router_level2_7 | Completed crossbar traversal for flit 4 from input 1.0 to output 10.0.
8 | network_0/router_level2_7 | Buffering flit 4 at output 10.
8 | network_0/network_0_fchan_20495 | Completed channel traversal for flit 8.
8 | network_0/router_level2_0 | Sending flit 9 to channel at output 10.
8 | network_0/router_level2_2 | Sending flit 10 to channel at output 8.
8 | network_0/router_level2_4 | Sending flit 6 to channel at output 12.
8 | network_0/router_level2_5 | Sending flit 3 to channel at output 14.
8 | network_0/router_level2_6 | Sending flit 1 to channel at output 11.
8 | network_0/router_level2_6 | Sending flit 5 to channel at output 15.
8 | network_0/router_level2_7 | Sending flit 4 to channel at output 10.
9 | network_0/network_0_fchan_12290 | Beginning channel traversal for flit 9 with delay 1.
9 | network_0/network_0_fchan_12304 | Beginning channel traversal for flit 10 with delay 1.
9 | network_0/network_0_fchan_12324 | Beginning channel traversal for flit 6 with delay 1.
9 | network_0/network_0_fchan_12334 | Beginning channel traversal for flit 3 with delay 1.
9 | network_0/network_0_fchan_12339 | Beginning channel traversal for flit 1 with delay 1.
9 | network_0/network_0_fchan_12343 | Beginning channel traversal for flit 5 with delay 1.
9 | network_0/network_0_fchan_12346 | Beginning channel traversal for flit 4 with delay 1.
9 | network_0/router_level2_7 | Received flit 8 from channel at input 1.
9 | network_0/router_level2_0 | Beginning switch allocation for VC 0 at input 1 (front: 2).
9 | network_0/router_level2_0 |   Requesting output 15.0 (non-spec, pri: 0).
9 | network_0/router_level2_0/sw_allocator | Input requests = [ 1 -> [ 15@0 ]  4 -> [ 9@0 ]  7 -> [ 8@0 ]  ], output requests = [ 8 -> [ 7@0 ]  9 -> [ 4@0 ]  15 -> [ 1@0 ]  ].
9 | network_0/router_level2_0/sw_allocator | Input grants = [ 1 -> 15  4 -> 9  7 -> 8  ], output grants = [ 8 -> 7  9 -> 4  15 -> 1  ].
9 | network_0/router_level2_0 | Assigning output 15.0 to VC 0 at input 1.0.
9 | network_0/router_level2_0 | Beginning crossbar traversal for flit 7 from input 1.0 to output 12.0.
9 | network_0/router_level2_0 | Completed switch allocation for VC 0 at input 1 (front: 2).
9 | network_0/router_level2_0 |   Scheduling switch connection from input 1.0 to output 15.0.
9 | network_0/router_level2_0 | Updating lookahead routing information for flit 2.
9 | network_0/router_level2_0 | Completed crossbar traversal for flit 7 from input 1.0 to output 12.0.
9 | network_0/router_level2_0 | Buffering flit 7 at output 12.
9 | network_0/router_level2_7 | Adding flit 8 to VC 0 at input 1 (state: idle, empty).
9 | network_0/router_level2_7 | Using precomputed lookahead routing information for VC 0 at input 1 (front: 8).
9 | network_0/router_level2_7/buf_1/vc_0 | Changing state from idle to vc_alloc.
9 | network_0/router_level2_7 | Beginning VC allocation for VC 0 at input 1 (front: 8).
9 | network_0/router_level2_7 |   VC 0 at output 13 is in use by VC 1 at input 0 (front flit: 4057).
9 | network_0/router_level2_7 |   Requesting VC 1 at output 13 (in_pri: 0, out_pri: 0).
9 | network_0/router_level2_7 |   Requesting VC 2 at output 13 (in_pri: 0, out_pri: 0).
9 | network_0/router_level2_7 |   Requesting VC 3 at output 13 (in_pri: 0, out_pri: 0).
9 | network_0/router_level2_7/vc_allocator | Input requests = [ 0 -> [ 48@0 49@0 50@0 51@0 ]  4 -> [ 53@0 54@0 55@0 ]  16 -> [ 56@0 58@0 59@0 ]  24 -> [ 45@0 46@0 47@0 ]  28 -> [ 36@0 37@0 38@0 39@0 ]  ], output requests = [ 36 -> [ 28@0 ]  37 -> [ 28@0 ]  38 -> [ 28@0 ]  39 -> [ 28@0 ]  45 -> [ 24@0 ]  46 -> [ 24@0 ]  47 -> [ 24@0 ]  48 -> [ 0@0 ]  49 -> [ 0@0 ]  50 -> [ 0@0 ]  51 -> [ 0@0 ]  53 -> [ 4@0 ]  54 -> [ 4@0 ]  55 -> [ 4@0 ]  56 -> [ 16@0 ]  58 -> [ 16@0 ]  59 -> [ 16@0 ]  ].
9 | network_0/router_level2_7/vc_allocator | Input grants = [ 0 -> 48  4 -> 53  16 -> 56  24 -> 45  28 -> 36  ], output grants = [ 36 -> 28  45 -> 24  48 -> 0  53 -> 4  56 -> 16  ].
9 | network_0/router_level2_7 | Assigning VC 1 at output 13 to VC 0 at input 1.
9 | network_0/router_level2_7 | Completed VC allocation for VC 0 at input 1 (front: 8).
9 | network_0/router_level2_7 |   Acquiring assigned VC 1 at output 13.
9 | network_0/router_level2_7/buf_1/vc_0 | Changing state from vc_alloc to active.
9 | network_0/network_0_fchan_12290 | Completed channel traversal for flit 9.
9 | network_0/network_0_fchan_12304 | Completed channel traversal for flit 10.
9 | network_0/network_0_fchan_12324 | Completed channel traversal for flit 6.
9 | network_0/network_0_fchan_12334 | Completed channel traversal for flit 3.
9 | network_0/network_0_fchan_12339 | Completed channel traversal for flit 1.
9 | network_0/network_0_fchan_12343 | Completed channel traversal for flit 5.
9 | network_0/network_0_fchan_12346 | Completed channel traversal for flit 4.
9 | network_0/router_level2_0 | Sending flit 7 to channel at output 12.
10 | network_0/network_0_fchan_12292 | Beginning channel traversal for flit 7 with delay 1.
10 | network_0/router_level1_2 | Received flit 10 from channel at input 0.
10 | network_0/router_level1_16 | Received flit 9 from channel at input 0.
10 | network_0/router_level1_23 | Received flit 4 from channel at input 0.
10 | network_0/router_level1_30 | Received flit 1 from channel at input 0.
10 | network_0/router_level1_36 | Received flit 6 from channel at input 0.
10 | network_0/router_level1_53 | Received flit 3 from channel at input 0.
10 | network_0/router_level1_62 | Received flit 5 from channel at input 0.
10 | network_0/router_level1_2 | Adding flit 10 to VC 0 at input 0 (state: idle, empty).
10 | network_0/router_level1_2 | Using precomputed lookahead routing information for VC 0 at input 0 (front: 10).
10 | network_0/router_level1_2/buf_0/vc_0 | Changing state from idle to vc_alloc.
10 | network_0/router_level1_2 | Beginning VC allocation for VC 0 at input 0 (front: 10).
10 | network_0/router_level1_2 |   Requesting VC 0 at output 11 (in_pri: 0, out_pri: 0).
10 | network_0/router_level1_2 |   Requesting VC 1 at output 11 (in_pri: 0, out_pri: 0).
10 | network_0/router_level1_2 |   Requesting VC 2 at output 11 (in_pri: 0, out_pri: 0).
10 | network_0/router_level1_2 |   Requesting VC 3 at output 11 (in_pri: 0, out_pri: 0).
10 | network_0/router_level1_2/vc_allocator | Input requests = [ 0 -> [ 44@0 45@0 46@0 47@0 ]  8 -> [ 60@0 61@0 62@0 63@0 ]  16 -> [ 20@0 21@0 22@0 23@0 ]  20 -> [ 48@0 49@0 50@0 51@0 ]  ], output requests = [ 20 -> [ 16@0 ]  21 -> [ 16@0 ]  22 -> [ 16@0 ]  23 -> [ 16@0 ]  44 -> [ 0@0 ]  45 -> [ 0@0 ]  46 -> [ 0@0 ]  47 -> [ 0@0 ]  48 -> [ 20@0 ]  49 -> [ 20@0 ]  50 -> [ 20@0 ]  51 -> [ 20@0 ]  60 -> [ 8@0 ]  61 -> [ 8@0 ]  62 -> [ 8@0 ]  63 -> [ 8@0 ]  ].
10 | network_0/router_level1_2/vc_allocator | Input grants = [ 0 -> 44  8 -> 60  16 -> 20  20 -> 48  ], output grants = [ 20 -> 16  44 -> 0  48 -> 20  60 -> 8  ].
10 | network_0/router_level1_2 | Assigning VC 0 at output 11 to VC 0 at input 0.
10 | network_0/router_level1_2 | Completed VC allocation for VC 0 at input 0 (front: 10).
10 | network_0/router_level1_2 |   Acquiring assigned VC 0 at output 11.
10 | network_0/router_level1_2/buf_0/vc_0 | Changing state from vc_alloc to active.
10 | network_0/router_level1_16 | Adding flit 9 to VC 0 at input 0 (state: idle, empty).
10 | network_0/router_level1_16 | Using precomputed lookahead routing information for VC 0 at input 0 (front: 9).
10 | network_0/router_level1_16/buf_0/vc_0 | Changing state from idle to vc_alloc.
10 | network_0/router_level1_16 | Beginning VC allocation for VC 0 at input 0 (front: 9).
10 | network_0/router_level1_16 |   Requesting VC 0 at output 7 (in_pri: 0, out_pri: 0).
10 | network_0/router_level1_16 |   Requesting VC 1 at output 7 (in_pri: 0, out_pri: 0).
10 | network_0/router_level1_16 |   Requesting VC 2 at output 7 (in_pri: 0, out_pri: 0).
10 | network_0/router_level1_16 |   Requesting VC 3 at output 7 (in_pri: 0, out_pri: 0).
10 | network_0/router_level1_16/vc_allocator | Input requests = [ 0 -> [ 28@0 29@0 30@0 31@0 ]  4 -> [ 36@0 37@0 38@0 39@0 ]  ], output requests = [ 28 -> [ 0@0 ]  29 -> [ 0@0 ]  30 -> [ 0@0 ]  31 -> [ 0@0 ]  36 -> [ 4@0 ]  37 -> [ 4@0 ]  38 -> [ 4@0 ]  39 -> [ 4@0 ]  ].
10 | network_0/router_level1_16/vc_allocator | Input grants = [ 0 -> 28  4 -> 36  ], output grants = [ 28 -> 0  36 -> 4  ].
10 | network_0/router_level1_16 | Assigning VC 0 at output 7 to VC 0 at input 0.
10 | network_0/router_level1_16 | Completed VC allocation for VC 0 at input 0 (front: 9).
10 | network_0/router_level1_16 |   Acquiring assigned VC 0 at output 7.
10 | network_0/router_level1_16/buf_0/vc_0 | Changing state from vc_alloc to active.
10 | network_0/router_level1_23 | Adding flit 4 to VC 0 at input 0 (state: idle, empty).
10 | network_0/router_level1_23 | Using precomputed lookahead routing information for VC 0 at input 0 (front: 4).
10 | network_0/router_level1_23/buf_0/vc_0 | Changing state from idle to vc_alloc.
10 | network_0/router_level1_23 | Beginning VC allocation for VC 0 at input 0 (front: 4).
10 | network_0/router_level1_23 |   Requesting VC 0 at output 15 (in_pri: 0, out_pri: 0).
10 | network_0/router_level1_23 |   Requesting VC 1 at output 15 (in_pri: 0, out_pri: 0).
10 | network_0/router_level1_23 |   Requesting VC 2 at output 15 (in_pri: 0, out_pri: 0).
10 | network_0/router_level1_23 |   Requesting VC 3 at output 15 (in_pri: 0, out_pri: 0).
10 | network_0/router_level1_23/vc_allocator | Input requests = [ 0 -> [ 60@0 61@0 62@0 63@0 ]  16 -> [ 40@0 41@0 42@0 43@0 ]  20 -> [ 48@0 49@0 50@0 51@0 ]  ], output requests = [ 40 -> [ 16@0 ]  41 -> [ 16@0 ]  42 -> [ 16@0 ]  43 -> [ 16@0 ]  48 -> [ 20@0 ]  49 -> [ 20@0 ]  50 -> [ 20@0 ]  51 -> [ 20@0 ]  60 -> [ 0@0 ]  61 -> [ 0@0 ]  62 -> [ 0@0 ]  63 -> [ 0@0 ]  ].
10 | network_0/router_level1_23/vc_allocator | Input grants = [ 0 -> 60  16 -> 40  20 -> 48  ], output grants = [ 40 -> 16  48 -> 20  60 -> 0  ].
10 | network_0/router_level1_23 | Assigning VC 0 at output 15 to VC 0 at input 0.
10 | network_0/router_level1_23 | Completed VC allocation for VC 0 at input 0 (front: 4).
10 | network_0/router_level1_23 |   Acquiring assigned VC 0 at output 15.
10 | network_0/router_level1_23/buf_0/vc_0 | Changing state from vc_alloc to active.
10 | network_0/router_level1_30 | Adding flit 1 to VC 0 at input 0 (state: idle, empty).
10 | network_0/router_level1_30 | Using precomputed lookahead routing information for VC 0 at input 0 (front: 1).
10 | network_0/router_level1_30/buf_0/vc_0 | Changing state from idle to vc_alloc.
10 | network_0/router_level1_30 | Beginning VC allocation for VC 0 at input 0 (front: 1).
10 | network_0/router_level1_30 |   Requesting VC 0 at output 13 (in_pri: 0, out_pri: 0).
10 | network_0/router_level1_30 |   Requesting VC 1 at output 13 (in_pri: 0, out_pri: 0).
10 | network_0/router_level1_30 |   Requesting VC 2 at output 13 (in_pri: 0, out_pri: 0).
10 | network_0/router_level1_30 |   Requesting VC 3 at output 13 (in_pri: 0, out_pri: 0).
10 | network_0/router_level1_30/vc_allocator | Input requests = [ 0 -> [ 52@0 53@0 54@0 55@0 ]  4 -> [ 52@0 53@0 54@0 55@0 ]  16 -> [ 36@0 37@0 38@0 39@0 ]  ], output requests = [ 36 -> [ 16@0 ]  37 -> [ 16@0 ]  38 -> [ 16@0 ]  39 -> [ 16@0 ]  52 -> [ 0@0 4@0 ]  53 -> [ 0@0 4@0 ]  54 -> [ 0@0 4@0 ]  55 -> [ 0@0 4@0 ]  ].
10 | network_0/router_level1_30/vc_allocator | Input grants = [ 0 -> 52  16 -> 36  ], output grants = [ 36 -> 16  52 -> 0  ].
10 | network_0/router_level1_30 | Assigning VC 0 at output 13 to VC 0 at input 0.
10 | network_0/router_level1_30 | Completed VC allocation for VC 0 at input 0 (front: 1).
10 | network_0/router_level1_30 |   Acquiring assigned VC 0 at output 13.
10 | network_0/router_level1_30/buf_0/vc_0 | Changing state from vc_alloc to active.
10 | network_0/router_level1_36 | Adding flit 6 to VC 0 at input 0 (state: idle, empty).
10 | network_0/router_level1_36 | Using precomputed lookahead routing information for VC 0 at input 0 (front: 6).
10 | network_0/router_level1_36/buf_0/vc_0 | Changing state from idle to vc_alloc.
10 | network_0/router_level1_36 | Beginning VC allocation for VC 0 at input 0 (front: 6).
10 | network_0/router_level1_36 |   Requesting VC 0 at output 15 (in_pri: 0, out_pri: 0).
10 | network_0/router_level1_36 |   Requesting VC 1 at output 15 (in_pri: 0, out_pri: 0).
10 | network_0/router_level1_36 |   Requesting VC 2 at output 15 (in_pri: 0, out_pri: 0).
10 | network_0/router_level1_36 |   Requesting VC 3 at output 15 (in_pri: 0, out_pri: 0).
10 | network_0/router_level1_36/vc_allocator | Input requests = [ 0 -> [ 60@0 61@0 62@0 63@0 ]  ], output requests = [ 60 -> [ 0@0 ]  61 -> [ 0@0 ]  62 -> [ 0@0 ]  63 -> [ 0@0 ]  ].
10 | network_0/router_level1_36/vc_allocator | Input grants = [ 0 -> 60  ], output grants = [ 60 -> 0  ].
10 | network_0/router_level1_36 | Assigning VC 0 at output 15 to VC 0 at input 0.
10 | network_0/router_level1_36 | Completed VC allocation for VC 0 at input 0 (front: 6).
10 | network_0/router_level1_36 |   Acquiring assigned VC 0 at output 15.
10 | network_0/router_level1_36/buf_0/vc_0 | Changing state from vc_alloc to active.
10 | network_0/router_level1_53 | Adding flit 3 to VC 0 at input 0 (state: idle, empty).
10 | network_0/router_level1_53 | Using precomputed lookahead routing information for VC 0 at input 0 (front: 3).
10 | network_0/router_level1_53/buf_0/vc_0 | Changing state from idle to vc_alloc.
10 | network_0/router_level1_53 | Beginning VC allocation for VC 0 at input 0 (front: 3).
10 | network_0/router_level1_53 |   Requesting VC 0 at output 11 (in_pri: 0, out_pri: 0).
10 | network_0/router_level1_53 |   Requesting VC 1 at output 11 (in_pri: 0, out_pri: 0).
10 | network_0/router_level1_53 |   Requesting VC 2 at output 11 (in_pri: 0, out_pri: 0).
10 | network_0/router_level1_53 |   Requesting VC 3 at output 11 (in_pri: 0, out_pri: 0).
10 | network_0/router_level1_53/vc_allocator | Input requests = [ 0 -> [ 44@0 45@0 46@0 47@0 ]  8 -> [ 44@0 45@0 46@0 47@0 ]  ], output requests = [ 44 -> [ 0@0 8@0 ]  45 -> [ 0@0 8@0 ]  46 -> [ 0@0 8@0 ]  47 -> [ 0@0 8@0 ]  ].
10 | network_0/router_level1_53/vc_allocator | Input grants = [ 0 -> 44  ], output grants = [ 44 -> 0  ].
10 | network_0/router_level1_53 | Assigning VC 0 at output 11 to VC 0 at input 0.
10 | network_0/router_level1_53 | Completed VC allocation for VC 0 at input 0 (front: 3).
10 | network_0/router_level1_53 |   Acquiring assigned VC 0 at output 11.
10 | network_0/router_level1_53/buf_0/vc_0 | Changing state from vc_alloc to active.
10 | network_0/router_level1_62 | Adding flit 5 to VC 0 at input 0 (state: idle, empty).
10 | network_0/router_level1_62 | Using precomputed lookahead routing information for VC 0 at input 0 (front: 5).
10 | network_0/router_level1_62/buf_0/vc_0 | Changing state from idle to vc_alloc.
10 | network_0/router_level1_62 | Beginning VC allocation for VC 0 at input 0 (front: 5).
10 | network_0/router_level1_62 |   Requesting VC 0 at output 12 (in_pri: 0, out_pri: 0).
10 | network_0/router_level1_62 |   Requesting VC 1 at output 12 (in_pri: 0, out_pri: 0).
10 | network_0/router_level1_62 |   Requesting VC 2 at output 12 (in_pri: 0, out_pri: 0).
10 | network_0/router_level1_62 |   Requesting VC 3 at output 12 (in_pri: 0, out_pri: 0).
10 | network_0/router_level1_62/vc_allocator | Input requests = [ 0 -> [ 48@0 49@0 50@0 51@0 ]  4 -> [ 48@0 49@0 50@0 51@0 ]  8 -> [ 56@0 57@0 58@0 59@0 ]  20 -> [ 12@0 13@0 14@0 15@0 ]  ], output requests = [ 12 -> [ 20@0 ]  13 -> [ 20@0 ]  14 -> [ 20@0 ]  15 -> [ 20@0 ]  48 -> [ 0@0 4@0 ]  49 -> [ 0@0 4@0 ]  50 -> [ 0@0 4@0 ]  51 -> [ 0@0 4@0 ]  56 -> [ 8@0 ]  57 -> [ 8@0 ]  58 -> [ 8@0 ]  59 -> [ 8@0 ]  ].
10 | network_0/router_level1_62/vc_allocator | Input grants = [ 0 -> 48  8 -> 56  20 -> 12  ], output grants = [ 12 -> 20  48 -> 0  56 -> 8  ].
10 | network_0/router_level1_62 | Assigning VC 0 at output 12 to VC 0 at input 0.
10 | network_0/router_level1_62 | Completed VC allocation for VC 0 at input 0 (front: 5).
10 | network_0/router_level1_62 |   Acquiring assigned VC 0 at output 12.
10 | network_0/router_level1_62/buf_0/vc_0 | Changing state from vc_alloc to active.
10 | network_0/router_level2_0 | Beginning crossbar traversal for flit 2 from input 1.0 to output 15.0.
10 | network_0/router_level2_0 | Completed crossbar traversal for flit 2 from input 1.0 to output 15.0.
10 | network_0/router_level2_0 | Buffering flit 2 at output 15.
10 | network_0/router_level2_7 | Beginning switch allocation for VC 0 at input 1 (front: 8).
10 | network_0/router_level2_7 |   Requesting output 13.0 (non-spec, pri: 0).
10 | network_0/router_level2_7/sw_allocator | Input requests = [ 0 -> [ 12@0 ]  1 -> [ 13@0 ]  4 -> [ 14@0 ]  6 -> [ 11@0 ]  7 -> [ 9@0 ]  ], output requests = [ 9 -> [ 7@0 ]  11 -> [ 6@0 ]  12 -> [ 0@0 ]  13 -> [ 1@0 ]  14 -> [ 4@0 ]  ].
10 | network_0/router_level2_7/sw_allocator | Input grants = [ 0 -> 12  1 -> 13  4 -> 14  6 -> 11  7 -> 9  ], output grants = [ 9 -> 7  11 -> 6  12 -> 0  13 -> 1  14 -> 4  ].
10 | network_0/router_level2_7 | Assigning output 13.0 to VC 0 at input 1.0.
10 | network_0/router_level2_7 | Completed switch allocation for VC 0 at input 1 (front: 8).
10 | network_0/router_level2_7 |   Scheduling switch connection from input 1.0 to output 13.0.
10 | network_0/router_level2_7 | Updating lookahead routing information for flit 8.
10 | network_0/network_0_fchan_12292 | Completed channel traversal for flit 7.
10 | network_0/router_level2_0 | Sending flit 2 to channel at output 15.
11 | network_0/network_0_fchan_12295 | Beginning channel traversal for flit 2 with delay 1.
11 | network_0/router_level1_32 | Received flit 7 from channel at input 0.
11 | network_0/router_level1_2 | Beginning switch allocation for VC 0 at input 0 (front: 10).
11 | network_0/router_level1_2 |   Requesting output 11.0 (non-spec, pri: 0).
11 | network_0/router_level1_2/sw_allocator | Input requests = [ 0 -> [ 11@0 ]  2 -> [ 15@0 ]  4 -> [ 5@0 ]  5 -> [ 12@0 ]  ], output requests = [ 5 -> [ 4@0 ]  11 -> [ 0@0 ]  12 -> [ 5@0 ]  15 -> [ 2@0 ]  ].
11 | network_0/router_level1_2/sw_allocator | Input grants = [ 0 -> 11  2 -> 15  4 -> 5  5 -> 12  ], output grants = [ 5 -> 4  11 -> 0  12 -> 5  15 -> 2  ].
11 | network_0/router_level1_2 | Assigning output 11.0 to VC 0 at input 0.0.
11 | network_0/router_level1_2 | Completed switch allocation for VC 0 at input 0 (front: 10).
11 | network_0/router_level1_2 |   Scheduling switch connection from input 0.0 to output 11.0.
11 | network_0/router_level1_2 | Updating lookahead routing information for flit 10.
11 | network_0/router_level1_16 | Beginning switch allocation for VC 0 at input 0 (front: 9).
11 | network_0/router_level1_16 |   Requesting output 7.0 (non-spec, pri: 0).
11 | network_0/router_level1_16/sw_allocator | Input requests = [ 0 -> [ 7@0 ]  1 -> [ 9@0 ]  ], output requests = [ 7 -> [ 0@0 ]  9 -> [ 1@0 ]  ].
11 | network_0/router_level1_16/sw_allocator | Input grants = [ 0 -> 7  1 -> 9  ], output grants = [ 7 -> 0  9 -> 1  ].
11 | network_0/router_level1_16 | Assigning output 7.0 to VC 0 at input 0.0.
11 | network_0/router_level1_16 | Completed switch allocation for VC 0 at input 0 (front: 9).
11 | network_0/router_level1_16 |   Scheduling switch connection from input 0.0 to output 7.0.
11 | network_0/router_level1_16 | Updating lookahead routing information for flit 9.
11 | network_0/router_level1_23 | Beginning switch allocation for VC 0 at input 0 (front: 4).
11 | network_0/router_level1_23 |   Requesting output 15.0 (non-spec, pri: 0).
11 | network_0/router_level1_23/sw_allocator | Input requests = [ 0 -> [ 15@0 ]  4 -> [ 10@0 ]  5 -> [ 12@0 ]  ], output requests = [ 10 -> [ 4@0 ]  12 -> [ 5@0 ]  15 -> [ 0@0 ]  ].
11 | network_0/router_level1_23/sw_allocator | Input grants = [ 0 -> 15  4 -> 10  5 -> 12  ], output grants = [ 10 -> 4  12 -> 5  15 -> 0  ].
11 | network_0/router_level1_23 | Assigning output 15.0 to VC 0 at input 0.0.
11 | network_0/router_level1_23 | Completed switch allocation for VC 0 at input 0 (front: 4).
11 | network_0/router_level1_23 |   Scheduling switch connection from input 0.0 to output 15.0.
[...]
29 | network_0/router_level3_222 | Assigning VC 0 at output 3 to VC 0 at input 8.
29 | network_0/router_level3_222 | Completed VC allocation for VC 0 at input 8 (front: 2).
29 | network_0/router_level3_222 |   Acquiring assigned VC 0 at output 3.
29 | network_0/router_level3_222/buf_8/vc_0 | Changing state from vc_alloc to active.
29 | network_0/router_level3_226 | Beginning crossbar traversal for flit 7 from input 8.0 to output 2.0.
29 | network_0/router_level3_226 | Completed crossbar traversal for flit 7 from input 8.0 to output 2.0.
29 | network_0/router_level3_226 | Buffering flit 7 at output 2.
29 | network_0/router_level3_305 | Beginning switch allocation for VC 0 at input 15 (front: 4).
29 | network_0/router_level3_305 |   Requesting output 0.0 (non-spec, pri: 0).
29 | network_0/router_level3_305/sw_allocator | Input requests = [ 0 -> [ 11@0 ]  1 -> [ 8@0 ]  5 -> [ 8@0 ]  6 -> [ 9@0 ]  7 -> [ 11@0 ]  10 -> [ 7@0 ]  13 -> [ 1@0 ]  14 -> [ 2@0 ]  15 -> [ 0@0 ]  ], output requests = [ 0 -> [ 15@0 ]  1 -> [ 13@0 ]  2 -> [ 14@0 ]  7 -> [ 10@0 ]  8 -> [ 1@0 5@0 ]  9 -> [ 6@0 ]  11 -> [ 0@0 7@0 ]  ].
29 | network_0/router_level3_305/sw_allocator | Input grants = [ 1 -> 8  6 -> 9  7 -> 11  10 -> 7  13 -> 1  14 -> 2  15 -> 0  ], output grants = [ 0 -> 15  1 -> 13  2 -> 14  7 -> 10  8 -> 1  9 -> 6  11 -> 7  ].
29 | network_0/router_level3_305 | Assigning output 0.0 to VC 0 at input 15.0.
29 | network_0/router_level3_305 | Completed switch allocation for VC 0 at input 15 (front: 4).
29 | network_0/router_level3_305 |   Scheduling switch connection from input 15.0 to output 0.0.
29 | network_0/router_level3_485 | Beginning crossbar traversal for flit 5 from input 14.0 to output 6.0.
29 | network_0/router_level3_485 | Completed crossbar traversal for flit 5 from input 14.0 to output 6.0.
29 | network_0/router_level3_485 | Buffering flit 5 at output 6.
29 | network_0/network_0_fchan_egress1209 | Completed channel traversal for flit 3.
29 | network_0/network_0_fchan_egress1370 | Completed channel traversal for flit 6.
29 | network_0/network_0_fchan_egress1978 | Completed channel traversal for flit 1.
29 | network_0/router_level3_129 | Sending flit 10 to channel at output 6.
29 | network_0/router_level3_226 | Sending flit 7 to channel at output 2.
29 | network_0/router_level3_485 | Sending flit 5 to channel at output 6.
30 | node1209 | Ejecting flit 3 (packet 3) from VC 0.
30 | node1370 | Ejecting flit 6 (packet 6) from VC 0.
30 | node1978 | Ejecting flit 1 (packet 1) from VC 0.
30 | network_0/network_0_fchan_egress1038 | Beginning channel traversal for flit 10 with delay 1.
30 | network_0/network_0_fchan_egress1810 | Beginning channel traversal for flit 7 with delay 1.
30 | network_0/network_0_fchan_egress3886 | Beginning channel traversal for flit 5 with delay 1.
30 | node1209 | Injecting credit for VC 0 into subnet 0.
30 | node1209 | Retiring flit 3 (packet 3, src = 9, dest = 1209, hops = 7, flat = 30).
30 | node1209 | Retiring packet 3 (plat = 30, nlat = 30, frag = 0, src = 9, dest = 1209).
30 | node1370 | Injecting credit for VC 0 into subnet 0.
30 | node1370 | Retiring flit 6 (packet 6, src = 13, dest = 1370, hops = 7, flat = 30).
30 | node1370 | Retiring packet 6 (plat = 30, nlat = 30, frag = 0, src = 13, dest = 1370).
30 | node1978 | Injecting credit for VC 0 into subnet 0.
30 | node1978 | Retiring flit 1 (packet 1, src = 5, dest = 1978, hops = 7, flat = 30).
30 | node1978 | Retiring packet 1 (plat = 30, nlat = 30, frag = 0, src = 5, dest = 1978).
30 | network_0/router_level2_231 | Beginning crossbar traversal for flit 8 from input 13.0 to output 0.0.
30 | network_0/router_level2_231 | Completed crossbar traversal for flit 8 from input 13.0 to output 0.0.
30 | network_0/router_level2_231 | Buffering flit 8 at output 0.
30 | network_0/router_level3_222 | Beginning switch allocation for VC 0 at input 8 (front: 2).
30 | network_0/router_level3_222 |   Requesting output 3.0 (non-spec, pri: 0).
30 | network_0/router_level3_222/sw_allocator | Input requests = [ 0 -> [ 14@0 ]  1 -> [ 11@0 ]  4 -> [ 10@0 ]  6 -> [ 13@0 ]  7 -> [ 8@0 13@0 ]  8 -> [ 3@0 ]  12 -> [ 1@0 ]  14 -> [ 5@0 ]  ], output requests = [ 1 -> [ 12@0 ]  3 -> [ 8@0 ]  5 -> [ 14@0 ]  8 -> [ 7@0 ]  10 -> [ 4@0 ]  11 -> [ 1@0 ]  13 -> [ 6@0 7@0 ]  14 -> [ 0@0 ]  ].
30 | network_0/router_level3_222/sw_allocator | Input grants = [ 0 -> 14  1 -> 11  4 -> 10  6 -> 13  8 -> 3  12 -> 1  14 -> 5  ], output grants = [ 1 -> 12  3 -> 8  5 -> 14  10 -> 4  11 -> 1  13 -> 6  14 -> 0  ].
30 | network_0/router_level3_222 | Assigning output 3.0 to VC 0 at input 8.0.
30 | network_0/router_level3_222 | Completed switch allocation for VC 0 at input 8 (front: 2).
30 | network_0/router_level3_222 |   Scheduling switch connection from input 8.0 to output 3.0.
30 | network_0/router_level3_305 | Beginning crossbar traversal for flit 4 from input 15.0 to output 0.0.
30 | network_0/router_level3_305 | Completed crossbar traversal for flit 4 from input 15.0 to output 0.0.
30 | network_0/router_level3_305 | Buffering flit 4 at output 0.
30 | network_0/network_0_fchan_egress1038 | Completed channel traversal for flit 10.
30 | network_0/network_0_fchan_egress1810 | Completed channel traversal for flit 7.
30 | network_0/network_0_fchan_egress3886 | Completed channel traversal for flit 5.
30 | network_0/router_level2_231 | Sending flit 8 to channel at output 0.
30 | network_0/router_level3_305 | Sending flit 4 to channel at output 0.
31 | node1038 | Ejecting flit 10 (packet 10) from VC 1.
31 | node1810 | Ejecting flit 7 (packet 7) from VC 0.
31 | node3886 | Ejecting flit 5 (packet 5) from VC 0.
31 | network_0/network_0_fchan_egress2440 | Beginning channel traversal for flit 4 with delay 1.
31 | network_0/network_0_fchan_18232 | Beginning channel traversal for flit 8 with delay 1.
31 | node1038 | Injecting credit for VC 1 into subnet 0.
31 | node1038 | Retiring flit 10 (packet 10, src = 19, dest = 1038, hops = 7, flat = 31).
31 | node1038 | Retiring packet 10 (plat = 31, nlat = 31, frag = 0, src = 19, dest = 1038).
31 | node1810 | Injecting credit for VC 0 into subnet 0.
31 | node1810 | Retiring flit 7 (packet 7, src = 14, dest = 1810, hops = 7, flat = 31).
31 | node1810 | Retiring packet 7 (plat = 31, nlat = 31, frag = 0, src = 14, dest = 1810).
31 | node3886 | Injecting credit for VC 0 into subnet 0.
31 | node3886 | Retiring flit 5 (packet 5, src = 12, dest = 3886, hops = 7, flat = 31).
31 | node3886 | Retiring packet 5 (plat = 31, nlat = 31, frag = 0, src = 12, dest = 3886).
31 | network_0/router_level3_222 | Beginning crossbar traversal for flit 2 from input 8.0 to output 3.0.
31 | network_0/router_level3_222 | Completed crossbar traversal for flit 2 from input 8.0 to output 3.0.
31 | network_0/router_level3_222 | Buffering flit 2 at output 3.
31 | network_0/network_0_fchan_egress2440 | Completed channel traversal for flit 4.
31 | network_0/network_0_fchan_18232 | Completed channel traversal for flit 8.
31 | network_0/router_level3_222 | Sending flit 2 to channel at output 3.
32 | node2440 | Ejecting flit 4 (packet 4) from VC 0.
32 | network_0/network_0_fchan_egress1779 | Beginning channel traversal for flit 2 with delay 1.
32 | network_0/router_level3_224 | Received flit 8 from channel at input 15.
32 | node2440 | Injecting credit for VC 0 into subnet 0.
32 | node2440 | Retiring flit 4 (packet 4, src = 11, dest = 2440, hops = 7, flat = 32).
32 | node2440 | Retiring packet 4 (plat = 32, nlat = 32, frag = 0, src = 11, dest = 2440).
32 | network_0/router_level3_224 | Adding flit 8 to VC 0 at input 15 (state: idle, empty).
32 | network_0/router_level3_224 | Using precomputed lookahead routing information for VC 0 at input 15 (front: 8).
32 | network_0/router_level3_224/buf_15/vc_0 | Changing state from idle to vc_alloc.
32 | network_0/router_level3_224 | Beginning VC allocation for VC 0 at input 15 (front: 8).
32 | network_0/router_level3_224 |   Requesting VC 0 at output 3 (in_pri: 0, out_pri: 0).
32 | network_0/router_level3_224 |   Requesting VC 1 at output 3 (in_pri: 0, out_pri: 0).
32 | network_0/router_level3_224 |   Requesting VC 2 at output 3 (in_pri: 0, out_pri: 0).
32 | network_0/router_level3_224 |   Requesting VC 3 at output 3 (in_pri: 0, out_pri: 0).
32 | network_0/router_level3_224/vc_allocator | Input requests = [ 1 -> [ 36@0 37@0 38@0 39@0 ]  4 -> [ 44@0 46@0 47@0 ]  16 -> [ 36@0 37@0 38@0 39@0 ]  19 -> [ 61@0 62@0 63@0 ]  23 -> [ 61@0 62@0 63@0 ]  25 -> [ 56@0 58@0 59@0 ]  26 -> [ 40@0 41@0 42@0 43@0 ]  30 -> [ 36@0 37@0 38@0 39@0 ]  32 -> [ 20@0 21@0 22@0 23@0 ]  40 -> [ 12@0 13@0 14@0 15@0 ]  56 -> [ 16@0 17@0 18@0 19@0 ]  60 -> [ 12@0 13@0 14@0 15@0 ]  ], output requests = [ 12 -> [ 40@0 60@0 ]  13 -> [ 40@0 60@0 ]  14 -> [ 40@0 60@0 ]  15 -> [ 40@0 60@0 ]  16 -> [ 56@0 ]  17 -> [ 56@0 ]  18 -> [ 56@0 ]  19 -> [ 56@0 ]  20 -> [ 32@0 ]  21 -> [ 32@0 ]  22 -> [ 32@0 ]  23 -> [ 32@0 ]  36 -> [ 1@0 16@0 30@0 ]  37 -> [ 1@0 16@0 30@0 ]  38 -> [ 1@0 16@0 30@0 ]  39 -> [ 1@0 16@0 30@0 ]  40 -> [ 26@0 ]  41 -> [ 26@0 ]  42 -> [ 26@0 ]  43 -> [ 26@0 ]  44 -> [ 4@0 ]  46 -> [ 4@0 ]  47 -> [ 4@0 ]  56 -> [ 25@0 ]  58 -> [ 25@0 ]  59 -> [ 25@0 ]  61 -> [ 19@0 23@0 ]  62 -> [ 19@0 23@0 ]  63 -> [ 19@0 23@0 ]  ].
32 | network_0/router_level3_224/vc_allocator | Input grants = [ 4 -> 44  23 -> 61  25 -> 56  26 -> 40  30 -> 36  32 -> 20  40 -> 12  56 -> 16  ], output grants = [ 12 -> 40  16 -> 56  20 -> 32  36 -> 30  40 -> 26  44 -> 4  56 -> 25  61 -> 23  ].
32 | network_0/router_level3_224 | VC allocation failed for VC 0 at input 15.
32 | network_0/router_level3_224 | Completed VC allocation for VC 0 at input 15 (front: 8).
32 | network_0/router_level3_224 |   No output VC allocated.
32 | network_0/network_0_fchan_egress1779 | Completed channel traversal for flit 2.
33 | node1779 | Ejecting flit 2 (packet 2) from VC 0.
33 | node1779 | Injecting credit for VC 0 into subnet 0.
33 | node1779 | Retiring flit 2 (packet 2, src = 8, dest = 1779, hops = 7, flat = 33).
33 | node1779 | Retiring packet 2 (plat = 33, nlat = 33, frag = 0, src = 8, dest = 1779).
33 | network_0/router_level3_224 | Beginning VC allocation for VC 0 at input 15 (front: 8).
33 | network_0/router_level3_224 |   VC 0 at output 3 is in use by VC 0 at input 10 (front flit: 29430).
33 | network_0/router_level3_224 |   Requesting VC 1 at output 3 (in_pri: 0, out_pri: 0).
33 | network_0/router_level3_224 |   Requesting VC 2 at output 3 (in_pri: 0, out_pri: 0).
33 | network_0/router_level3_224 |   Requesting VC 3 at output 3 (in_pri: 0, out_pri: 0).
33 | network_0/router_level3_224/vc_allocator | Input requests = [ 1 -> [ 37@0 38@0 39@0 ]  5 -> [ 37@0 38@0 39@0 ]  16 -> [ 37@0 38@0 39@0 ]  17 -> [ 45@0 46@0 47@0 ]  19 -> [ 60@0 62@0 63@0 ]  31 -> [ 57@0 58@0 59@0 ]  36 -> [ 8@0 9@0 10@0 11@0 ]  60 -> [ 13@0 14@0 15@0 ]  ], output requests = [ 8 -> [ 36@0 ]  9 -> [ 36@0 ]  10 -> [ 36@0 ]  11 -> [ 36@0 ]  13 -> [ 60@0 ]  14 -> [ 60@0 ]  15 -> [ 60@0 ]  37 -> [ 1@0 5@0 16@0 ]  38 -> [ 1@0 5@0 16@0 ]  39 -> [ 1@0 5@0 16@0 ]  45 -> [ 17@0 ]  46 -> [ 17@0 ]  47 -> [ 17@0 ]  57 -> [ 31@0 ]  58 -> [ 31@0 ]  59 -> [ 31@0 ]  60 -> [ 19@0 ]  62 -> [ 19@0 ]  63 -> [ 19@0 ]  ].
33 | network_0/router_level3_224/vc_allocator | Input grants = [ 16 -> 37  17 -> 45  19 -> 60  31 -> 57  36 -> 8  60 -> 13  ], output grants = [ 8 -> 36  13 -> 60  37 -> 16  45 -> 17  57 -> 31  60 -> 19  ].
33 | network_0/router_level3_224 | Assigning VC 1 at output 3 to VC 0 at input 15.
33 | network_0/router_level3_224 | Completed VC allocation for VC 0 at input 15 (front: 8).
33 | network_0/router_level3_224 |   Acquiring assigned VC 1 at output 3.
33 | network_0/router_level3_224/buf_15/vc_0 | Changing state from vc_alloc to active.
34 | network_0/router_level3_224 | Beginning switch allocation for VC 0 at input 15 (front: 8).
34 | network_0/router_level3_224 |   Requesting output 3.0 (non-spec, pri: 0).
34 | network_0/router_level3_224/sw_allocator | Input requests = [ 4 -> [ 9@0 11@0 15@0 ]  6 -> [ 14@0 ]  7 -> [ 14@0 ]  9 -> [ 2@0 ]  15 -> [ 3@0 ]  ], output requests = [ 2 -> [ 9@0 ]  3 -> [ 15@0 ]  9 -> [ 4@0 ]  11 -> [ 4@0 ]  14 -> [ 6@0 7@0 ]  15 -> [ 4@0 ]  ].
34 | network_0/router_level3_224/sw_allocator | Input grants = [ 4 -> 15  6 -> 14  9 -> 2  15 -> 3  ], output grants = [ 2 -> 9  3 -> 15  14 -> 6  15 -> 4  ].
34 | network_0/router_level3_224 | Assigning output 3.0 to VC 0 at input 15.0.
34 | network_0/router_level3_224 | Completed switch allocation for VC 0 at input 15 (front: 8).
34 | network_0/router_level3_224 |   Scheduling switch connection from input 15.0 to output 3.0.
35 | network_0/router_level3_224 | Beginning crossbar traversal for flit 8 from input 15.0 to output 3.0.
35 | network_0/router_level3_224 | Completed crossbar traversal for flit 8 from input 15.0 to output 3.0.
35 | network_0/router_level3_224 | Buffering flit 8 at output 3.
35 | network_0/router_level3_224 | Sending flit 8 to channel at output 3.
36 | network_0/network_0_fchan_egress1795 | Beginning channel traversal for flit 8 with delay 1.
36 | network_0/network_0_fchan_egress1795 | Completed channel traversal for flit 8.
37 | node1795 | Ejecting flit 8 (packet 8) from VC 1.
37 | node1795 | Injecting credit for VC 1 into subnet 0.
37 | node1795 | Retiring flit 8 (packet 8, src = 15, dest = 1795, hops = 7, flat = 37).
37 | node1795 | Retiring packet 8 (plat = 37, nlat = 37, frag = 0, src = 15, dest = 1795).
Class 0:
Packet latency average = 39.3101
	minimum = 6
	maximum = 103
Network latency average = 39.3101
	minimum = 6
	maximum = 103
Slowest packet = 256696
Flit latency average = 39.3101
	minimum = 6
	maximum = 103
Slowest flit = 256696
Fragmentation average = 0
	minimum = 0
	maximum = 0
Injected packet rate average = 0.499673
	minimum = 0.452 (at node 385)
	maximum = 0.562 (at node 3220)
Accepted packet rate average = 0.479737
	minimum = 0.399 (at node 79)
	maximum = 0.564 (at node 2068)
Injected flit rate average = 0.499673
	minimum = 0.452 (at node 385)
	maximum = 0.562 (at node 3220)
Accepted flit rate average= 0.479737
	minimum = 0.399 (at node 79)
	maximum = 0.564 (at node 2068)
Injected packet length average = 1
Accepted packet length average = 1
Total in-flight flits = 81658 (0 measured)
latency change    = 1
throughput change = 1
Class 0:
Packet latency average = 39.5087
	minimum = 6
	maximum = 109
Network latency average = 39.5087
	minimum = 6
	maximum = 109
Slowest packet = 3032429
Flit latency average = 39.5087
	minimum = 6
	maximum = 109
Slowest flit = 3032429
Fragmentation average = 0
	minimum = 0
	maximum = 0
Injected packet rate average = 0.49985
	minimum = 0.4615 (at node 3454)
	maximum = 0.5505 (at node 1522)
Accepted packet rate average = 0.490018
	minimum = 0.4385 (at node 477)
	maximum = 0.5465 (at node 752)
Injected flit rate average = 0.49985
	minimum = 0.4615 (at node 3454)
	maximum = 0.5505 (at node 1522)
Accepted flit rate average= 0.490018
	minimum = 0.4385 (at node 477)
	maximum = 0.5465 (at node 752)
Injected packet length average = 1
Accepted packet length average = 1
Total in-flight flits = 80548 (0 measured)
latency change    = 0.00502802
throughput change = 0.0209806
Class 0:
Packet latency average = 39.6734
	minimum = 6
	maximum = 113
Network latency average = 39.6734
	minimum = 6
	maximum = 113
Slowest packet = 4885578
Flit latency average = 39.6734
	minimum = 6
	maximum = 113
Slowest flit = 4885578
Fragmentation average = 0
	minimum = 0
	maximum = 0
Injected packet rate average = 0.499993
	minimum = 0.448 (at node 2668)
	maximum = 0.548 (at node 1776)
Accepted packet rate average = 0.499805
	minimum = 0.418 (at node 2055)
	maximum = 0.567 (at node 452)
Injected flit rate average = 0.499993
	minimum = 0.448 (at node 2668)
	maximum = 0.548 (at node 1776)
Accepted flit rate average= 0.499805
	minimum = 0.418 (at node 2055)
	maximum = 0.567 (at node 452)
Injected packet length average = 1
Accepted packet length average = 1
Total in-flight flits = 81315 (0 measured)
latency change    = 0.00415224
throughput change = 0.0195826
Warmed up ...Time used is 3000 cycles
Class 0:
Packet latency average = 39.5876
	minimum = 6
	maximum = 114
Network latency average = 39.5876
	minimum = 6
	maximum = 114
Slowest packet = 7545039
Flit latency average = 39.6499
	minimum = 6
	maximum = 114
Slowest flit = 7545039
Fragmentation average = 0
	minimum = 0
	maximum = 0
Injected packet rate average = 0.499688
	minimum = 0.441 (at node 1114)
	maximum = 0.555 (at node 1910)
Accepted packet rate average = 0.499733
	minimum = 0.41 (at node 917)
	maximum = 0.577 (at node 1440)
Injected flit rate average = 0.499688
	minimum = 0.441 (at node 1114)
	maximum = 0.555 (at node 1910)
Accepted flit rate average= 0.499733
	minimum = 0.41 (at node 917)
	maximum = 0.577 (at node 1440)
Injected packet length average = 1
Accepted packet length average = 1
Total in-flight flits = 81133 (81133 measured)
latency change    = 0.00216759
throughput change = 0.000145586
Class 0:
Packet latency average = 39.6499
	minimum = 6
	maximum = 114
Network latency average = 39.6499
	minimum = 6
	maximum = 114
Slowest packet = 7545039
Flit latency average = 39.6798
	minimum = 6
	maximum = 114
Slowest flit = 7545039
Fragmentation average = 0
	minimum = 0
	maximum = 0
Injected packet rate average = 0.499945
	minimum = 0.456 (at node 3448)
	maximum = 0.5395 (at node 3845)
Accepted packet rate average = 0.49997
	minimum = 0.4415 (at node 1912)
	maximum = 0.552 (at node 1246)
Injected flit rate average = 0.499945
	minimum = 0.456 (at node 3448)
	maximum = 0.5395 (at node 3845)
Accepted flit rate average= 0.49997
	minimum = 0.4415 (at node 1912)
	maximum = 0.552 (at node 1246)
Injected packet length average = 1
Accepted packet length average = 1
Total in-flight flits = 81111 (81111 measured)
latency change    = 0.00157096
throughput change = 0.00047537
Class 0:
Packet latency average = 39.6676
	minimum = 6
	maximum = 114
Network latency average = 39.6676
	minimum = 6
	maximum = 114
Slowest packet = 7545039
Flit latency average = 39.6873
	minimum = 6
	maximum = 114
Slowest flit = 7545039
Fragmentation average = 0
	minimum = 0
	maximum = 0
Injected packet rate average = 0.500058
	minimum = 0.464667 (at node 2136)
	maximum = 0.53 (at node 580)
Accepted packet rate average = 0.500069
	minimum = 0.450333 (at node 1918)
	maximum = 0.551667 (at node 1246)
Injected flit rate average = 0.500058
	minimum = 0.464667 (at node 2136)
	maximum = 0.53 (at node 580)
Accepted flit rate average= 0.500069
	minimum = 0.450333 (at node 1918)
	maximum = 0.551667 (at node 1246)
Injected packet length average = 1
Accepted packet length average = 1
Total in-flight flits = 81176 (81176 measured)
latency change    = 0.000446744
throughput change = 0.000198133
Draining all recorded packets ...
Draining remaining packets ...
Time taken is 6151 cycles
====== Overall Traffic Statistics ======
====== Traffic class 0 ======
Packet latency average = 39.6877 (1 samples)
	minimum = 6 (1 samples)
	maximum = 114 (1 samples)
Network latency average = 39.6877 (1 samples)
	minimum = 6 (1 samples)
	maximum = 114 (1 samples)
Flit latency average = 39.6972 (1 samples)
	minimum = 6 (1 samples)
	maximum = 114 (1 samples)
Fragmentation average = 0 (1 samples)
	minimum = 0 (1 samples)
	maximum = 0 (1 samples)
Injected packet rate average = 0.500058 (1 samples)
	minimum = 0.464667 (1 samples)
	maximum = 0.53 (1 samples)
Accepted packet rate average = 0.500069 (1 samples)
	minimum = 0.450333 (1 samples)
	maximum = 0.551667 (1 samples)
Injected flit rate average = 0.500058 (1 samples)
	minimum = 0.464667 (1 samples)
	maximum = 0.53 (1 samples)
Accepted flit rate average = 0.500069 (1 samples)
	minimum = 0.450333 (1 samples)
	maximum = 0.551667 (1 samples)
Injected packet size average = 1 (1 samples)
Accepted packet size average = 1 (1 samples)
Hops average = 6.71477 (1 samples)
Total run time 1254.03
