BEGIN Configuration File: examples/fattree_config_0.25_4_transpose
// $Id: dragonflyconfig 3555 2011-05-16 23:37:55Z dub $

// Copyright (c) 2007-2015, Trustees of The Leland Stanford Junior University
// All rights reserved.
//
// Redistribution and use in source and binary forms, with or without
// modification, are permitted provided that the following conditions are met:
//
// Redistributions of source code must retain the above copyright notice, this
// list of conditions and the following disclaimer.
// Redistributions in binary form must reproduce the above copyright notice,
// this list of conditions and the following disclaimer in the documentation
// and/or other materials provided with the distribution.
//
// THIS SOFTWARE IS PROVIDED BY THE COPYRIGHT HOLDERS AND CONTRIBUTORS "AS IS"
// AND ANY EXPRESS OR IMPLIED WARRANTIES, INCLUDING, BUT NOT LIMITED TO, THE
// IMPLIED WARRANTIES OF MERCHANTABILITY AND FITNESS FOR A PARTICULAR PURPOSE
// ARE DISCLAIMED. IN NO EVENT SHALL THE COPYRIGHT OWNER OR CONTRIBUTORS BE
// LIABLE FOR ANY DIRECT, INDIRECT, INCIDENTAL, SPECIAL, EXEMPLARY, OR
// CONSEQUENTIAL DAMAGES (INCLUDING, BUT NOT LIMITED TO, PROCUREMENT OF
// SUBSTITUTE GOODS OR SERVICES; LOSS OF USE, DATA, OR PROFITS; OR BUSINESS
// INTERRUPTION) HOWEVER CAUSED AND ON ANY THEORY OF LIABILITY, WHETHER IN
// CONTRACT, STRICT LIABILITY, OR TORT (INCLUDING NEGLIGENCE OR OTHERWISE)
// ARISING IN ANY WAY OUT OF THE USE OF THIS SOFTWARE, EVEN IF ADVISED OF THE
// POSSIBILITY OF SUCH DAMAGE.


hold_switch_for_packet=1;

vc_buf_size = 16;


wait_for_tail_credit = 0;

//
// Router architecture
//
vc_allocator = separable_input_first; 
sw_allocator = separable_input_first;
alloc_iters  = 1;

credit_delay   = 2;
routing_delay  = 0;
vc_alloc_delay = 1;
sw_alloc_delay = 1;
st_final_delay = 1;

input_speedup     = 1;
output_speedup    = 1;
internal_speedup  = 1.0;


warmup_periods = 3;
sim_count          = 1;

sample_period  = 1000;  

routing_function = nca;
num_vcs     = 4;

priority = none;
traffic = transpose;


injection_rate = 0.25;
packet_size = 1;
injection_rate_uses_flits=1;

topology = fattree;

k  = 8;
n  = 4;
t = 4;

watch_file = watchfile.txt;
watch_out=-;
stats_out = examples/fattree_config_0.25_4_transpose.m;

END Configuration File: examples/fattree_config_0.25_4_transpose
Fat Tree
 k = 8 levels = 4
 each switch - total radix =  16
 # of switches = 2048
 # of channels = 24576
 # of nodes ( size of network ) = 4096
 tapering factor = 4
0 | node15 | Enqueuing flit 1 (packet 1) at time 0.
0 | node18 | Enqueuing flit 2 (packet 2) at time 0.
0 | node31 | Enqueuing flit 3 (packet 3) at time 0.
0 | node34 | Enqueuing flit 4 (packet 4) at time 0.
0 | node40 | Enqueuing flit 5 (packet 5) at time 0.
0 | node47 | Enqueuing flit 6 (packet 6) at time 0.
0 | node53 | Enqueuing flit 7 (packet 7) at time 0.
0 | node54 | Enqueuing flit 8 (packet 8) at time 0.
0 | node55 | Enqueuing flit 9 (packet 9) at time 0.
0 | node58 | Enqueuing flit 10 (packet 10) at time 0.
0 | traffic_manager | Finding output VC for flit 1:
0 | traffic_manager |   Selected output VC 0.
0 | node15 | Generating lookahead routing info for flit 1.
0 | node15 | Injecting flit 1 into subnet 0 at time 0 with priority 0.
0 | traffic_manager | Finding output VC for flit 2:
0 | traffic_manager |   Selected output VC 0.
0 | node18 | Generating lookahead routing info for flit 2.
0 | node18 | Injecting flit 2 into subnet 0 at time 0 with priority 0.
0 | traffic_manager | Finding output VC for flit 3:
0 | traffic_manager |   Selected output VC 0.
0 | node31 | Generating lookahead routing info for flit 3.
0 | node31 | Injecting flit 3 into subnet 0 at time 0 with priority 0.
0 | traffic_manager | Finding output VC for flit 4:
0 | traffic_manager |   Selected output VC 0.
0 | node34 | Generating lookahead routing info for flit 4.
0 | node34 | Injecting flit 4 into subnet 0 at time 0 with priority 0.
0 | traffic_manager | Finding output VC for flit 5:
0 | traffic_manager |   Selected output VC 0.
0 | node40 | Generating lookahead routing info for flit 5.
0 | node40 | Injecting flit 5 into subnet 0 at time 0 with priority 0.
0 | traffic_manager | Finding output VC for flit 6:
0 | traffic_manager |   Selected output VC 0.
0 | node47 | Generating lookahead routing info for flit 6.
0 | node47 | Injecting flit 6 into subnet 0 at time 0 with priority 0.
0 | traffic_manager | Finding output VC for flit 7:
0 | traffic_manager |   Selected output VC 0.
0 | node53 | Generating lookahead routing info for flit 7.
0 | node53 | Injecting flit 7 into subnet 0 at time 0 with priority 0.
0 | traffic_manager | Finding output VC for flit 8:
0 | traffic_manager |   Selected output VC 0.
0 | node54 | Generating lookahead routing info for flit 8.
0 | node54 | Injecting flit 8 into subnet 0 at time 0 with priority 0.
0 | traffic_manager | Finding output VC for flit 9:
0 | traffic_manager |   Selected output VC 0.
0 | node55 | Generating lookahead routing info for flit 9.
0 | node55 | Injecting flit 9 into subnet 0 at time 0 with priority 0.
0 | traffic_manager | Finding output VC for flit 10:
0 | traffic_manager |   Selected output VC 0.
0 | node58 | Generating lookahead routing info for flit 10.
0 | node58 | Injecting flit 10 into subnet 0 at time 0 with priority 0.
1 | network_0/network_0_fchan_ingress15 | Beginning channel traversal for flit 1 with delay 1.
1 | network_0/network_0_fchan_ingress18 | Beginning channel traversal for flit 2 with delay 1.
1 | network_0/network_0_fchan_ingress31 | Beginning channel traversal for flit 3 with delay 1.
1 | network_0/network_0_fchan_ingress34 | Beginning channel traversal for flit 4 with delay 1.
1 | network_0/network_0_fchan_ingress40 | Beginning channel traversal for flit 5 with delay 1.
1 | network_0/network_0_fchan_ingress47 | Beginning channel traversal for flit 6 with delay 1.
1 | network_0/network_0_fchan_ingress53 | Beginning channel traversal for flit 7 with delay 1.
1 | network_0/network_0_fchan_ingress54 | Beginning channel traversal for flit 8 with delay 1.
1 | network_0/network_0_fchan_ingress55 | Beginning channel traversal for flit 9 with delay 1.
1 | network_0/network_0_fchan_ingress58 | Beginning channel traversal for flit 10 with delay 1.
1 | network_0/network_0_fchan_ingress15 | Completed channel traversal for flit 1.
1 | network_0/network_0_fchan_ingress18 | Completed channel traversal for flit 2.
1 | network_0/network_0_fchan_ingress31 | Completed channel traversal for flit 3.
1 | network_0/network_0_fchan_ingress34 | Completed channel traversal for flit 4.
1 | network_0/network_0_fchan_ingress40 | Completed channel traversal for flit 5.
1 | network_0/network_0_fchan_ingress47 | Completed channel traversal for flit 6.
1 | network_0/network_0_fchan_ingress53 | Completed channel traversal for flit 7.
1 | network_0/network_0_fchan_ingress54 | Completed channel traversal for flit 8.
1 | network_0/network_0_fchan_ingress55 | Completed channel traversal for flit 9.
1 | network_0/network_0_fchan_ingress58 | Completed channel traversal for flit 10.
2 | network_0/router_level3_1 | Received flit 1 from channel at input 7.
2 | network_0/router_level3_2 | Received flit 2 from channel at input 2.
2 | network_0/router_level3_3 | Received flit 3 from channel at input 7.
2 | network_0/router_level3_4 | Received flit 4 from channel at input 2.
2 | network_0/router_level3_5 | Received flit 5 from channel at input 0.
2 | network_0/router_level3_5 | Received flit 6 from channel at input 7.
2 | network_0/router_level3_6 | Received flit 7 from channel at input 5.
2 | network_0/router_level3_6 | Received flit 8 from channel at input 6.
2 | network_0/router_level3_6 | Received flit 9 from channel at input 7.
2 | network_0/router_level3_7 | Received flit 10 from channel at input 2.
2 | network_0/router_level3_1 | Adding flit 1 to VC 0 at input 7 (state: idle, empty).
2 | network_0/router_level3_1 | Using precomputed lookahead routing information for VC 0 at input 7 (front: 1).
2 | network_0/router_level3_1/buf_7/vc_0 | Changing state from idle to vc_alloc.
2 | network_0/router_level3_1 | Beginning VC allocation for VC 0 at input 7 (front: 1).
2 | network_0/router_level3_1 |   Requesting VC 0 at output 8 (in_pri: 0, out_pri: 0).
2 | network_0/router_level3_1 |   Requesting VC 1 at output 8 (in_pri: 0, out_pri: 0).
2 | network_0/router_level3_1 |   Requesting VC 2 at output 8 (in_pri: 0, out_pri: 0).
2 | network_0/router_level3_1 |   Requesting VC 3 at output 8 (in_pri: 0, out_pri: 0).
2 | network_0/router_level3_1/vc_allocator | Input requests = [ 20 -> [ 40@0 41@0 42@0 43@0 ]  28 -> [ 32@0 33@0 34@0 35@0 ]  ], output requests = [ 32 -> [ 28@0 ]  33 -> [ 28@0 ]  34 -> [ 28@0 ]  35 -> [ 28@0 ]  40 -> [ 20@0 ]  41 -> [ 20@0 ]  42 -> [ 20@0 ]  43 -> [ 20@0 ]  ].
2 | network_0/router_level3_1/vc_allocator | Input grants = [ 20 -> 40  28 -> 32  ], output grants = [ 32 -> 28  40 -> 20  ].
2 | network_0/router_level3_1 | Assigning VC 0 at output 8 to VC 0 at input 7.
2 | network_0/router_level3_1 | Completed VC allocation for VC 0 at input 7 (front: 1).
2 | network_0/router_level3_1 |   Acquiring assigned VC 0 at output 8.
2 | network_0/router_level3_1/buf_7/vc_0 | Changing state from vc_alloc to active.
2 | network_0/router_level3_2 | Adding flit 2 to VC 0 at input 2 (state: idle, empty).
2 | network_0/router_level3_2 | Using precomputed lookahead routing information for VC 0 at input 2 (front: 2).
2 | network_0/router_level3_2/buf_2/vc_0 | Changing state from idle to vc_alloc.
2 | network_0/router_level3_2 | Beginning VC allocation for VC 0 at input 2 (front: 2).
2 | network_0/router_level3_2 |   Requesting VC 0 at output 15 (in_pri: 0, out_pri: 0).
2 | network_0/router_level3_2 |   Requesting VC 1 at output 15 (in_pri: 0, out_pri: 0).
2 | network_0/router_level3_2 |   Requesting VC 2 at output 15 (in_pri: 0, out_pri: 0).
2 | network_0/router_level3_2 |   Requesting VC 3 at output 15 (in_pri: 0, out_pri: 0).
2 | network_0/router_level3_2/vc_allocator | Input requests = [ 8 -> [ 60@0 61@0 62@0 63@0 ]  ], output requests = [ 60 -> [ 8@0 ]  61 -> [ 8@0 ]  62 -> [ 8@0 ]  63 -> [ 8@0 ]  ].
2 | network_0/router_level3_2/vc_allocator | Input grants = [ 8 -> 60  ], output grants = [ 60 -> 8  ].
2 | network_0/router_level3_2 | Assigning VC 0 at output 15 to VC 0 at input 2.
2 | network_0/router_level3_2 | Completed VC allocation for VC 0 at input 2 (front: 2).
2 | network_0/router_level3_2 |   Acquiring assigned VC 0 at output 15.
2 | network_0/router_level3_2/buf_2/vc_0 | Changing state from vc_alloc to active.
2 | network_0/router_level3_3 | Adding flit 3 to VC 0 at input 7 (state: idle, empty).
2 | network_0/router_level3_3 | Using precomputed lookahead routing information for VC 0 at input 7 (front: 3).
2 | network_0/router_level3_3/buf_7/vc_0 | Changing state from idle to vc_alloc.
2 | network_0/router_level3_3 | Beginning VC allocation for VC 0 at input 7 (front: 3).
2 | network_0/router_level3_3 |   Requesting VC 0 at output 13 (in_pri: 0, out_pri: 0).
2 | network_0/router_level3_3 |   Requesting VC 1 at output 13 (in_pri: 0, out_pri: 0).
2 | network_0/router_level3_3 |   Requesting VC 2 at output 13 (in_pri: 0, out_pri: 0).
2 | network_0/router_level3_3 |   Requesting VC 3 at output 13 (in_pri: 0, out_pri: 0).
2 | network_0/router_level3_3/vc_allocator | Input requests = [ 28 -> [ 52@0 53@0 54@0 55@0 ]  ], output requests = [ 52 -> [ 28@0 ]  53 -> [ 28@0 ]  54 -> [ 28@0 ]  55 -> [ 28@0 ]  ].
2 | network_0/router_level3_3/vc_allocator | Input grants = [ 28 -> 52  ], output grants = [ 52 -> 28  ].
2 | network_0/router_level3_3 | Assigning VC 0 at output 13 to VC 0 at input 7.
2 | network_0/router_level3_3 | Completed VC allocation for VC 0 at input 7 (front: 3).
2 | network_0/router_level3_3 |   Acquiring assigned VC 0 at output 13.
2 | network_0/router_level3_3/buf_7/vc_0 | Changing state from vc_alloc to active.
2 | network_0/router_level3_4 | Adding flit 4 to VC 0 at input 2 (state: idle, empty).
2 | network_0/router_level3_4 | Using precomputed lookahead routing information for VC 0 at input 2 (front: 4).
2 | network_0/router_level3_4/buf_2/vc_0 | Changing state from idle to vc_alloc.
2 | network_0/router_level3_4 | Beginning VC allocation for VC 0 at input 2 (front: 4).
2 | network_0/router_level3_4 |   Requesting VC 0 at output 13 (in_pri: 0, out_pri: 0).
2 | network_0/router_level3_4 |   Requesting VC 1 at output 13 (in_pri: 0, out_pri: 0).
2 | network_0/router_level3_4 |   Requesting VC 2 at output 13 (in_pri: 0, out_pri: 0).
2 | network_0/router_level3_4 |   Requesting VC 3 at output 13 (in_pri: 0, out_pri: 0).
2 | network_0/router_level3_4/vc_allocator | Input requests = [ 8 -> [ 52@0 53@0 54@0 55@0 ]  ], output requests = [ 52 -> [ 8@0 ]  53 -> [ 8@0 ]  54 -> [ 8@0 ]  55 -> [ 8@0 ]  ].
2 | network_0/router_level3_4/vc_allocator | Input grants = [ 8 -> 52  ], output grants = [ 52 -> 8  ].
2 | network_0/router_level3_4 | Assigning VC 0 at output 13 to VC 0 at input 2.
2 | network_0/router_level3_4 | Completed VC allocation for VC 0 at input 2 (front: 4).
2 | network_0/router_level3_4 |   Acquiring assigned VC 0 at output 13.
2 | network_0/router_level3_4/buf_2/vc_0 | Changing state from vc_alloc to active.
2 | network_0/router_level3_5 | Adding flit 5 to VC 0 at input 0 (state: idle, empty).
2 | network_0/router_level3_5 | Using precomputed lookahead routing information for VC 0 at input 0 (front: 5).
2 | network_0/router_level3_5/buf_0/vc_0 | Changing state from idle to vc_alloc.
2 | network_0/router_level3_5 | Adding flit 6 to VC 0 at input 7 (state: idle, empty).
2 | network_0/router_level3_5 | Using precomputed lookahead routing information for VC 0 at input 7 (front: 6).
2 | network_0/router_level3_5/buf_7/vc_0 | Changing state from idle to vc_alloc.
2 | network_0/router_level3_5 | Beginning VC allocation for VC 0 at input 0 (front: 5).
2 | network_0/router_level3_5 |   Requesting VC 0 at output 9 (in_pri: 0, out_pri: 0).
2 | network_0/router_level3_5 |   Requesting VC 1 at output 9 (in_pri: 0, out_pri: 0).
2 | network_0/router_level3_5 |   Requesting VC 2 at output 9 (in_pri: 0, out_pri: 0).
2 | network_0/router_level3_5 |   Requesting VC 3 at output 9 (in_pri: 0, out_pri: 0).
2 | network_0/router_level3_5 | Beginning VC allocation for VC 0 at input 7 (front: 6).
2 | network_0/router_level3_5 |   Requesting VC 0 at output 11 (in_pri: 0, out_pri: 0).
2 | network_0/router_level3_5 |   Requesting VC 1 at output 11 (in_pri: 0, out_pri: 0).
2 | network_0/router_level3_5 |   Requesting VC 2 at output 11 (in_pri: 0, out_pri: 0).
2 | network_0/router_level3_5 |   Requesting VC 3 at output 11 (in_pri: 0, out_pri: 0).
2 | network_0/router_level3_5/vc_allocator | Input requests = [ 0 -> [ 36@0 37@0 38@0 39@0 ]  28 -> [ 44@0 45@0 46@0 47@0 ]  ], output requests = [ 36 -> [ 0@0 ]  37 -> [ 0@0 ]  38 -> [ 0@0 ]  39 -> [ 0@0 ]  44 -> [ 28@0 ]  45 -> [ 28@0 ]  46 -> [ 28@0 ]  47 -> [ 28@0 ]  ].
2 | network_0/router_level3_5/vc_allocator | Input grants = [ 0 -> 36  28 -> 44  ], output grants = [ 36 -> 0  44 -> 28  ].
2 | network_0/router_level3_5 | Assigning VC 0 at output 9 to VC 0 at input 0.
2 | network_0/router_level3_5 | Assigning VC 0 at output 11 to VC 0 at input 7.
2 | network_0/router_level3_5 | Completed VC allocation for VC 0 at input 0 (front: 5).
2 | network_0/router_level3_5 |   Acquiring assigned VC 0 at output 9.
2 | network_0/router_level3_5/buf_0/vc_0 | Changing state from vc_alloc to active.
2 | network_0/router_level3_5 | Completed VC allocation for VC 0 at input 7 (front: 6).
2 | network_0/router_level3_5 |   Acquiring assigned VC 0 at output 11.
2 | network_0/router_level3_5/buf_7/vc_0 | Changing state from vc_alloc to active.
2 | network_0/router_level3_6 | Adding flit 7 to VC 0 at input 5 (state: idle, empty).
2 | network_0/router_level3_6 | Using precomputed lookahead routing information for VC 0 at input 5 (front: 7).
2 | network_0/router_level3_6/buf_5/vc_0 | Changing state from idle to vc_alloc.
2 | network_0/router_level3_6 | Adding flit 8 to VC 0 at input 6 (state: idle, empty).
2 | network_0/router_level3_6 | Using precomputed lookahead routing information for VC 0 at input 6 (front: 8).
2 | network_0/router_level3_6/buf_6/vc_0 | Changing state from idle to vc_alloc.
2 | network_0/router_level3_6 | Adding flit 9 to VC 0 at input 7 (state: idle, empty).
2 | network_0/router_level3_6 | Using precomputed lookahead routing information for VC 0 at input 7 (front: 9).
2 | network_0/router_level3_6/buf_7/vc_0 | Changing state from idle to vc_alloc.
2 | network_0/router_level3_6 | Beginning VC allocation for VC 0 at input 5 (front: 7).
2 | network_0/router_level3_6 |   Requesting VC 0 at output 14 (in_pri: 0, out_pri: 0).
2 | network_0/router_level3_6 |   Requesting VC 1 at output 14 (in_pri: 0, out_pri: 0).
2 | network_0/router_level3_6 |   Requesting VC 2 at output 14 (in_pri: 0, out_pri: 0).
2 | network_0/router_level3_6 |   Requesting VC 3 at output 14 (in_pri: 0, out_pri: 0).
2 | network_0/router_level3_6 | Beginning VC allocation for VC 0 at input 6 (front: 8).
2 | network_0/router_level3_6 |   Requesting VC 0 at output 12 (in_pri: 0, out_pri: 0).
2 | network_0/router_level3_6 |   Requesting VC 1 at output 12 (in_pri: 0, out_pri: 0).
2 | network_0/router_level3_6 |   Requesting VC 2 at output 12 (in_pri: 0, out_pri: 0).
2 | network_0/router_level3_6 |   Requesting VC 3 at output 12 (in_pri: 0, out_pri: 0).
2 | network_0/router_level3_6 | Beginning VC allocation for VC 0 at input 7 (front: 9).
2 | network_0/router_level3_6 |   Requesting VC 0 at output 12 (in_pri: 0, out_pri: 0).
2 | network_0/router_level3_6 |   Requesting VC 1 at output 12 (in_pri: 0, out_pri: 0).
2 | network_0/router_level3_6 |   Requesting VC 2 at output 12 (in_pri: 0, out_pri: 0).
2 | network_0/router_level3_6 |   Requesting VC 3 at output 12 (in_pri: 0, out_pri: 0).
2 | network_0/router_level3_6/vc_allocator | Input requests = [ 20 -> [ 56@0 57@0 58@0 59@0 ]  24 -> [ 48@0 49@0 50@0 51@0 ]  28 -> [ 48@0 49@0 50@0 51@0 ]  ], output requests = [ 48 -> [ 24@0 28@0 ]  49 -> [ 24@0 28@0 ]  50 -> [ 24@0 28@0 ]  51 -> [ 24@0 28@0 ]  56 -> [ 20@0 ]  57 -> [ 20@0 ]  58 -> [ 20@0 ]  59 -> [ 20@0 ]  ].
2 | network_0/router_level3_6/vc_allocator | Input grants = [ 20 -> 56  24 -> 48  ], output grants = [ 48 -> 24  56 -> 20  ].
2 | network_0/router_level3_6 | Assigning VC 0 at output 14 to VC 0 at input 5.
2 | network_0/router_level3_6 | Assigning VC 0 at output 12 to VC 0 at input 6.
2 | network_0/router_level3_6 | VC allocation failed for VC 0 at input 7.
2 | network_0/router_level3_6 | Completed VC allocation for VC 0 at input 5 (front: 7).
2 | network_0/router_level3_6 |   Acquiring assigned VC 0 at output 14.
2 | network_0/router_level3_6/buf_5/vc_0 | Changing state from vc_alloc to active.
2 | network_0/router_level3_6 | Completed VC allocation for VC 0 at input 6 (front: 8).
2 | network_0/router_level3_6 |   Acquiring assigned VC 0 at output 12.
2 | network_0/router_level3_6/buf_6/vc_0 | Changing state from vc_alloc to active.
2 | network_0/router_level3_6 | Completed VC allocation for VC 0 at input 7 (front: 9).
2 | network_0/router_level3_6 |   No output VC allocated.
2 | network_0/router_level3_7 | Adding flit 10 to VC 0 at input 2 (state: idle, empty).
2 | network_0/router_level3_7 | Using precomputed lookahead routing information for VC 0 at input 2 (front: 10).
2 | network_0/router_level3_7/buf_2/vc_0 | Changing state from idle to vc_alloc.
2 | network_0/router_level3_7 | Beginning VC allocation for VC 0 at input 2 (front: 10).
2 | network_0/router_level3_7 |   Requesting VC 0 at output 15 (in_pri: 0, out_pri: 0).
2 | network_0/router_level3_7 |   Requesting VC 1 at output 15 (in_pri: 0, out_pri: 0).
2 | network_0/router_level3_7 |   Requesting VC 2 at output 15 (in_pri: 0, out_pri: 0).
2 | network_0/router_level3_7 |   Requesting VC 3 at output 15 (in_pri: 0, out_pri: 0).
2 | network_0/router_level3_7/vc_allocator | Input requests = [ 8 -> [ 60@0 61@0 62@0 63@0 ]  24 -> [ 36@0 37@0 38@0 39@0 ]  ], output requests = [ 36 -> [ 24@0 ]  37 -> [ 24@0 ]  38 -> [ 24@0 ]  39 -> [ 24@0 ]  60 -> [ 8@0 ]  61 -> [ 8@0 ]  62 -> [ 8@0 ]  63 -> [ 8@0 ]  ].
2 | network_0/router_level3_7/vc_allocator | Input grants = [ 8 -> 60  24 -> 36  ], output grants = [ 36 -> 24  60 -> 8  ].
2 | network_0/router_level3_7 | Assigning VC 0 at output 15 to VC 0 at input 2.
2 | network_0/router_level3_7 | Completed VC allocation for VC 0 at input 2 (front: 10).
2 | network_0/router_level3_7 |   Acquiring assigned VC 0 at output 15.
2 | network_0/router_level3_7/buf_2/vc_0 | Changing state from vc_alloc to active.
3 | network_0/router_level3_1 | Beginning switch allocation for VC 0 at input 7 (front: 1).
3 | network_0/router_level3_1 |   Requesting output 8.0 (non-spec, pri: 0).
3 | network_0/router_level3_1/sw_allocator | Input requests = [ 5 -> [ 10@0 ]  7 -> [ 8@0 ]  ], output requests = [ 8 -> [ 7@0 ]  10 -> [ 5@0 ]  ].
3 | network_0/router_level3_1/sw_allocator | Input grants = [ 5 -> 10  7 -> 8  ], output grants = [ 8 -> 7  10 -> 5  ].
3 | network_0/router_level3_1 | Assigning output 8.0 to VC 0 at input 7.0.
3 | network_0/router_level3_1 | Completed switch allocation for VC 0 at input 7 (front: 1).
3 | network_0/router_level3_1 |   Scheduling switch connection from input 7.0 to output 8.0.
3 | network_0/router_level3_1 | Updating lookahead routing information for flit 1.
3 | network_0/router_level3_2 | Beginning switch allocation for VC 0 at input 2 (front: 2).
3 | network_0/router_level3_2 |   Requesting output 15.0 (non-spec, pri: 0).
3 | network_0/router_level3_2/sw_allocator | Input requests = [ 2 -> [ 15@0 ]  ], output requests = [ 15 -> [ 2@0 ]  ].
3 | network_0/router_level3_2/sw_allocator | Input grants = [ 2 -> 15  ], output grants = [ 15 -> 2  ].
3 | network_0/router_level3_2 | Assigning output 15.0 to VC 0 at input 2.0.
3 | network_0/router_level3_2 | Completed switch allocation for VC 0 at input 2 (front: 2).
3 | network_0/router_level3_2 |   Scheduling switch connection from input 2.0 to output 15.0.
3 | network_0/router_level3_2 | Updating lookahead routing information for flit 2.
3 | network_0/router_level3_3 | Beginning switch allocation for VC 0 at input 7 (front: 3).
3 | network_0/router_level3_3 |   Requesting output 13.0 (non-spec, pri: 0).
3 | network_0/router_level3_3/sw_allocator | Input requests = [ 7 -> [ 13@0 ]  ], output requests = [ 13 -> [ 7@0 ]  ].
3 | network_0/router_level3_3/sw_allocator | Input grants = [ 7 -> 13  ], output grants = [ 13 -> 7  ].
3 | network_0/router_level3_3 | Assigning output 13.0 to VC 0 at input 7.0.
3 | network_0/router_level3_3 | Completed switch allocation for VC 0 at input 7 (front: 3).
3 | network_0/router_level3_3 |   Scheduling switch connection from input 7.0 to output 13.0.
3 | network_0/router_level3_3 | Updating lookahead routing information for flit 3.
3 | network_0/router_level3_4 | Beginning switch allocation for VC 0 at input 2 (front: 4).
3 | network_0/router_level3_4 |   Requesting output 13.0 (non-spec, pri: 0).
3 | network_0/router_level3_4/sw_allocator | Input requests = [ 2 -> [ 13@0 ]  ], output requests = [ 13 -> [ 2@0 ]  ].
3 | network_0/router_level3_4/sw_allocator | Input grants = [ 2 -> 13  ], output grants = [ 13 -> 2  ].
3 | network_0/router_level3_4 | Assigning output 13.0 to VC 0 at input 2.0.
3 | network_0/router_level3_4 | Completed switch allocation for VC 0 at input 2 (front: 4).
3 | network_0/router_level3_4 |   Scheduling switch connection from input 2.0 to output 13.0.
3 | network_0/router_level3_4 | Updating lookahead routing information for flit 4.
3 | network_0/router_level3_5 | Beginning switch allocation for VC 0 at input 0 (front: 5).
3 | network_0/router_level3_5 |   Requesting output 9.0 (non-spec, pri: 0).
3 | network_0/router_level3_5 | Beginning switch allocation for VC 0 at input 7 (front: 6).
3 | network_0/router_level3_5 |   Requesting output 11.0 (non-spec, pri: 0).
3 | network_0/router_level3_5/sw_allocator | Input requests = [ 0 -> [ 9@0 ]  7 -> [ 11@0 ]  ], output requests = [ 9 -> [ 0@0 ]  11 -> [ 7@0 ]  ].
3 | network_0/router_level3_5/sw_allocator | Input grants = [ 0 -> 9  7 -> 11  ], output grants = [ 9 -> 0  11 -> 7  ].
3 | network_0/router_level3_5 | Assigning output 9.0 to VC 0 at input 0.0.
3 | network_0/router_level3_5 | Assigning output 11.0 to VC 0 at input 7.0.
3 | network_0/router_level3_5 | Completed switch allocation for VC 0 at input 0 (front: 5).
3 | network_0/router_level3_5 |   Scheduling switch connection from input 0.0 to output 9.0.
3 | network_0/router_level3_5 | Updating lookahead routing information for flit 5.
3 | network_0/router_level3_5 | Completed switch allocation for VC 0 at input 7 (front: 6).
3 | network_0/router_level3_5 |   Scheduling switch connection from input 7.0 to output 11.0.
3 | network_0/router_level3_5 | Updating lookahead routing information for flit 6.
3 | network_0/router_level3_6 | Beginning VC allocation for VC 0 at input 7 (front: 9).
3 | network_0/router_level3_6 |   VC 0 at output 12 is in use by VC 0 at input 6 (front flit: 8).
3 | network_0/router_level3_6 |   Requesting VC 1 at output 12 (in_pri: 0, out_pri: 0).
3 | network_0/router_level3_6 |   Requesting VC 2 at output 12 (in_pri: 0, out_pri: 0).
3 | network_0/router_level3_6 |   Requesting VC 3 at output 12 (in_pri: 0, out_pri: 0).
3 | network_0/router_level3_6/vc_allocator | Input requests = [ 16 -> [ 40@0 41@0 42@0 43@0 ]  21 -> [ 49@0 50@0 51@0 ]  28 -> [ 49@0 50@0 51@0 ]  ], output requests = [ 40 -> [ 16@0 ]  41 -> [ 16@0 ]  42 -> [ 16@0 ]  43 -> [ 16@0 ]  49 -> [ 21@0 28@0 ]  50 -> [ 21@0 28@0 ]  51 -> [ 21@0 28@0 ]  ].
3 | network_0/router_level3_6/vc_allocator | Input grants = [ 16 -> 40  21 -> 49  ], output grants = [ 40 -> 16  49 -> 21  ].
3 | network_0/router_level3_6 | VC allocation failed for VC 0 at input 7.
3 | network_0/router_level3_6 | Beginning switch allocation for VC 0 at input 5 (front: 7).
3 | network_0/router_level3_6 |   Requesting output 14.0 (non-spec, pri: 0).
3 | network_0/router_level3_6 | Beginning switch allocation for VC 0 at input 6 (front: 8).
3 | network_0/router_level3_6 |   Requesting output 12.0 (non-spec, pri: 0).
3 | network_0/router_level3_6/sw_allocator | Input requests = [ 5 -> [ 14@0 ]  6 -> [ 12@0 ]  ], output requests = [ 12 -> [ 6@0 ]  14 -> [ 5@0 ]  ].
3 | network_0/router_level3_6/sw_allocator | Input grants = [ 5 -> 14  6 -> 12  ], output grants = [ 12 -> 6  14 -> 5  ].
3 | network_0/router_level3_6 | Assigning output 14.0 to VC 0 at input 5.0.
3 | network_0/router_level3_6 | Assigning output 12.0 to VC 0 at input 6.0.
3 | network_0/router_level3_6 | Completed VC allocation for VC 0 at input 7 (front: 9).
3 | network_0/router_level3_6 |   No output VC allocated.
3 | network_0/router_level3_6 | Completed switch allocation for VC 0 at input 5 (front: 7).
3 | network_0/router_level3_6 |   Scheduling switch connection from input 5.0 to output 14.0.
3 | network_0/router_level3_6 | Updating lookahead routing information for flit 7.
3 | network_0/router_level3_6 | Completed switch allocation for VC 0 at input 6 (front: 8).
3 | network_0/router_level3_6 |   Scheduling switch connection from input 6.0 to output 12.0.
3 | network_0/router_level3_6 | Updating lookahead routing information for flit 8.
3 | network_0/router_level3_7 | Beginning switch allocation for VC 0 at input 2 (front: 10).
3 | network_0/router_level3_7 |   Requesting output 15.0 (non-spec, pri: 0).
3 | network_0/router_level3_7/sw_allocator | Input requests = [ 2 -> [ 15@0 ]  6 -> [ 9@0 ]  ], output requests = [ 9 -> [ 6@0 ]  15 -> [ 2@0 ]  ].
3 | network_0/router_level3_7/sw_allocator | Input grants = [ 2 -> 15  6 -> 9  ], output grants = [ 9 -> 6  15 -> 2  ].
3 | network_0/router_level3_7 | Assigning output 15.0 to VC 0 at input 2.0.
3 | network_0/router_level3_7 | Completed switch allocation for VC 0 at input 2 (front: 10).
3 | network_0/router_level3_7 |   Scheduling switch connection from input 2.0 to output 15.0.
3 | network_0/router_level3_7 | Updating lookahead routing information for flit 10.
4 | network_0/router_level3_1 | Beginning crossbar traversal for flit 1 from input 7.0 to output 8.0.
4 | network_0/router_level3_1 | Completed crossbar traversal for flit 1 from input 7.0 to output 8.0.
4 | network_0/router_level3_1 | Buffering flit 1 at output 8.
4 | network_0/router_level3_2 | Beginning crossbar traversal for flit 2 from input 2.0 to output 15.0.
4 | network_0/router_level3_2 | Completed crossbar traversal for flit 2 from input 2.0 to output 15.0.
4 | network_0/router_level3_2 | Buffering flit 2 at output 15.
4 | network_0/router_level3_3 | Beginning crossbar traversal for flit 3 from input 7.0 to output 13.0.
4 | network_0/router_level3_3 | Completed crossbar traversal for flit 3 from input 7.0 to output 13.0.
4 | network_0/router_level3_3 | Buffering flit 3 at output 13.
4 | network_0/router_level3_4 | Beginning crossbar traversal for flit 4 from input 2.0 to output 13.0.
4 | network_0/router_level3_4 | Completed crossbar traversal for flit 4 from input 2.0 to output 13.0.
4 | network_0/router_level3_4 | Buffering flit 4 at output 13.
4 | network_0/router_level3_5 | Beginning crossbar traversal for flit 5 from input 0.0 to output 9.0.
4 | network_0/router_level3_5 | Beginning crossbar traversal for flit 6 from input 7.0 to output 11.0.
4 | network_0/router_level3_5 | Completed crossbar traversal for flit 5 from input 0.0 to output 9.0.
4 | network_0/router_level3_5 | Buffering flit 5 at output 9.
4 | network_0/router_level3_5 | Completed crossbar traversal for flit 6 from input 7.0 to output 11.0.
4 | network_0/router_level3_5 | Buffering flit 6 at output 11.
4 | network_0/router_level3_6 | Beginning VC allocation for VC 0 at input 7 (front: 9).
4 | network_0/router_level3_6 |   Requesting VC 0 at output 12 (in_pri: 0, out_pri: 0).
4 | network_0/router_level3_6 |   VC 1 at output 12 is in use by VC 1 at input 5 (front flit: 964).
4 | network_0/router_level3_6 |   Requesting VC 2 at output 12 (in_pri: 0, out_pri: 0).
4 | network_0/router_level3_6 |   Requesting VC 3 at output 12 (in_pri: 0, out_pri: 0).
4 | network_0/router_level3_6/vc_allocator | Input requests = [ 28 -> [ 48@0 50@0 51@0 ]  ], output requests = [ 48 -> [ 28@0 ]  50 -> [ 28@0 ]  51 -> [ 28@0 ]  ].
4 | network_0/router_level3_6/vc_allocator | Input grants = [ 28 -> 48  ], output grants = [ 48 -> 28  ].
4 | network_0/router_level3_6 | Assigning VC 0 at output 12 to VC 0 at input 7.
4 | network_0/router_level3_6 | Beginning crossbar traversal for flit 7 from input 5.0 to output 14.0.
4 | network_0/router_level3_6 | Beginning crossbar traversal for flit 8 from input 6.0 to output 12.0.
4 | network_0/router_level3_6 | Completed VC allocation for VC 0 at input 7 (front: 9).
4 | network_0/router_level3_6 |   Acquiring assigned VC 0 at output 12.
4 | network_0/router_level3_6/buf_7/vc_0 | Changing state from vc_alloc to active.
4 | network_0/router_level3_6 | Completed crossbar traversal for flit 7 from input 5.0 to output 14.0.
4 | network_0/router_level3_6 | Buffering flit 7 at output 14.
4 | network_0/router_level3_6 | Completed crossbar traversal for flit 8 from input 6.0 to output 12.0.
4 | network_0/router_level3_6 | Buffering flit 8 at output 12.
4 | network_0/router_level3_7 | Beginning crossbar traversal for flit 10 from input 2.0 to output 15.0.
4 | network_0/router_level3_7 | Completed crossbar traversal for flit 10 from input 2.0 to output 15.0.
4 | network_0/router_level3_7 | Buffering flit 10 at output 15.
4 | network_0/router_level3_1 | Sending flit 1 to channel at output 8.
4 | network_0/router_level3_2 | Sending flit 2 to channel at output 15.
4 | network_0/router_level3_3 | Sending flit 3 to channel at output 13.
4 | network_0/router_level3_4 | Sending flit 4 to channel at output 13.
4 | network_0/router_level3_5 | Sending flit 5 to channel at output 9.
4 | network_0/router_level3_5 | Sending flit 6 to channel at output 11.
4 | network_0/router_level3_6 | Sending flit 8 to channel at output 12.
4 | network_0/router_level3_6 | Sending flit 7 to channel at output 14.
4 | network_0/router_level3_7 | Sending flit 10 to channel at output 15.
5 | network_0/network_0_fchan_20488 | Beginning channel traversal for flit 1 with delay 1.
5 | network_0/network_0_fchan_20503 | Beginning channel traversal for flit 2 with delay 1.
5 | network_0/network_0_fchan_20509 | Beginning channel traversal for flit 3 with delay 1.
5 | network_0/network_0_fchan_20517 | Beginning channel traversal for flit 4 with delay 1.
5 | network_0/network_0_fchan_20521 | Beginning channel traversal for flit 5 with delay 1.
5 | network_0/network_0_fchan_20523 | Beginning channel traversal for flit 6 with delay 1.
5 | network_0/network_0_fchan_20532 | Beginning channel traversal for flit 8 with delay 1.
5 | network_0/network_0_fchan_20534 | Beginning channel traversal for flit 7 with delay 1.
5 | network_0/network_0_fchan_20543 | Beginning channel traversal for flit 10 with delay 1.
5 | network_0/router_level3_6 | Beginning switch allocation for VC 0 at input 7 (front: 9).
5 | network_0/router_level3_6 |   Requesting output 12.0 (non-spec, pri: 0).
5 | network_0/router_level3_6/sw_allocator | Input requests = [ 7 -> [ 12@0 ]  ], output requests = [ 12 -> [ 7@0 ]  ].
5 | network_0/router_level3_6/sw_allocator | Input grants = [ 7 -> 12  ], output grants = [ 12 -> 7  ].
5 | network_0/router_level3_6 | Assigning output 12.0 to VC 0 at input 7.0.
5 | network_0/router_level3_6 | Completed switch allocation for VC 0 at input 7 (front: 9).
5 | network_0/router_level3_6 |   Scheduling switch connection from input 7.0 to output 12.0.
5 | network_0/router_level3_6 | Updating lookahead routing information for flit 9.
5 | network_0/network_0_fchan_20488 | Completed channel traversal for flit 1.
5 | network_0/network_0_fchan_20503 | Completed channel traversal for flit 2.
5 | network_0/network_0_fchan_20509 | Completed channel traversal for flit 3.
5 | network_0/network_0_fchan_20517 | Completed channel traversal for flit 4.
5 | network_0/network_0_fchan_20521 | Completed channel traversal for flit 5.
5 | network_0/network_0_fchan_20523 | Completed channel traversal for flit 6.
5 | network_0/network_0_fchan_20532 | Completed channel traversal for flit 8.
5 | network_0/network_0_fchan_20534 | Completed channel traversal for flit 7.
5 | network_0/network_0_fchan_20543 | Completed channel traversal for flit 10.
6 | network_0/router_level2_0 | Received flit 1 from channel at input 1.
6 | network_0/router_level2_1 | Received flit 5 from channel at input 5.
6 | network_0/router_level2_3 | Received flit 6 from channel at input 5.
6 | network_0/router_level2_4 | Received flit 8 from channel at input 6.
6 | network_0/router_level2_5 | Received flit 3 from channel at input 3.
6 | network_0/router_level2_5 | Received flit 4 from channel at input 4.
6 | network_0/router_level2_6 | Received flit 7 from channel at input 6.
6 | network_0/router_level2_7 | Received flit 2 from channel at input 2.
6 | network_0/router_level2_7 | Received flit 10 from channel at input 7.
6 | network_0/router_level2_0 | Adding flit 1 to VC 0 at input 1 (state: idle, empty).
6 | network_0/router_level2_0 | Using precomputed lookahead routing information for VC 0 at input 1 (front: 1).
6 | network_0/router_level2_0/buf_1/vc_0 | Changing state from idle to vc_alloc.
6 | network_0/router_level2_0 | Beginning VC allocation for VC 0 at input 1 (front: 1).
6 | network_0/router_level2_0 |   Requesting VC 0 at output 11 (in_pri: 0, out_pri: 0).
6 | network_0/router_level2_0 |   Requesting VC 1 at output 11 (in_pri: 0, out_pri: 0).
6 | network_0/router_level2_0 |   Requesting VC 2 at output 11 (in_pri: 0, out_pri: 0).
6 | network_0/router_level2_0 |   Requesting VC 3 at output 11 (in_pri: 0, out_pri: 0).
6 | network_0/router_level2_0/vc_allocator | Input requests = [ 4 -> [ 44@0 45@0 46@0 47@0 ]  ], output requests = [ 44 -> [ 4@0 ]  45 -> [ 4@0 ]  46 -> [ 4@0 ]  47 -> [ 4@0 ]  ].
6 | network_0/router_level2_0/vc_allocator | Input grants = [ 4 -> 44  ], output grants = [ 44 -> 4  ].
6 | network_0/router_level2_0 | Assigning VC 0 at output 11 to VC 0 at input 1.
6 | network_0/router_level2_0 | Completed VC allocation for VC 0 at input 1 (front: 1).
6 | network_0/router_level2_0 |   Acquiring assigned VC 0 at output 11.
6 | network_0/router_level2_0/buf_1/vc_0 | Changing state from vc_alloc to active.
6 | network_0/router_level2_1 | Adding flit 5 to VC 0 at input 5 (state: idle, empty).
6 | network_0/router_level2_1 | Using precomputed lookahead routing information for VC 0 at input 5 (front: 5).
6 | network_0/router_level2_1/buf_5/vc_0 | Changing state from idle to vc_alloc.
6 | network_0/router_level2_1 | Beginning VC allocation for VC 0 at input 5 (front: 5).
6 | network_0/router_level2_1 |   Requesting VC 0 at output 13 (in_pri: 0, out_pri: 0).
6 | network_0/router_level2_1 |   Requesting VC 1 at output 13 (in_pri: 0, out_pri: 0).
6 | network_0/router_level2_1 |   Requesting VC 2 at output 13 (in_pri: 0, out_pri: 0).
6 | network_0/router_level2_1 |   Requesting VC 3 at output 13 (in_pri: 0, out_pri: 0).
6 | network_0/router_level2_1/vc_allocator | Input requests = [ 20 -> [ 52@0 53@0 54@0 55@0 ]  28 -> [ 36@0 37@0 38@0 39@0 ]  ], output requests = [ 36 -> [ 28@0 ]  37 -> [ 28@0 ]  38 -> [ 28@0 ]  39 -> [ 28@0 ]  52 -> [ 20@0 ]  53 -> [ 20@0 ]  54 -> [ 20@0 ]  55 -> [ 20@0 ]  ].
6 | network_0/router_level2_1/vc_allocator | Input grants = [ 20 -> 52  28 -> 36  ], output grants = [ 36 -> 28  52 -> 20  ].
6 | network_0/router_level2_1 | Assigning VC 0 at output 13 to VC 0 at input 5.
6 | network_0/router_level2_1 | Completed VC allocation for VC 0 at input 5 (front: 5).
6 | network_0/router_level2_1 |   Acquiring assigned VC 0 at output 13.
6 | network_0/router_level2_1/buf_5/vc_0 | Changing state from vc_alloc to active.
6 | network_0/router_level2_3 | Adding flit 6 to VC 0 at input 5 (state: idle, empty).
6 | network_0/router_level2_3 | Using precomputed lookahead routing information for VC 0 at input 5 (front: 6).
6 | network_0/router_level2_3/buf_5/vc_0 | Changing state from idle to vc_alloc.
6 | network_0/router_level2_3 | Beginning VC allocation for VC 0 at input 5 (front: 6).
6 | network_0/router_level2_3 |   Requesting VC 0 at output 11 (in_pri: 0, out_pri: 0).
6 | network_0/router_level2_3 |   Requesting VC 1 at output 11 (in_pri: 0, out_pri: 0).
6 | network_0/router_level2_3 |   Requesting VC 2 at output 11 (in_pri: 0, out_pri: 0).
6 | network_0/router_level2_3 |   Requesting VC 3 at output 11 (in_pri: 0, out_pri: 0).
6 | network_0/router_level2_3/vc_allocator | Input requests = [ 20 -> [ 44@0 45@0 46@0 47@0 ]  ], output requests = [ 44 -> [ 20@0 ]  45 -> [ 20@0 ]  46 -> [ 20@0 ]  47 -> [ 20@0 ]  ].
6 | network_0/router_level2_3/vc_allocator | Input grants = [ 20 -> 44  ], output grants = [ 44 -> 20  ].
6 | network_0/router_level2_3 | Assigning VC 0 at output 11 to VC 0 at input 5.
6 | network_0/router_level2_3 | Completed VC allocation for VC 0 at input 5 (front: 6).
6 | network_0/router_level2_3 |   Acquiring assigned VC 0 at output 11.
6 | network_0/router_level2_3/buf_5/vc_0 | Changing state from vc_alloc to active.
6 | network_0/router_level2_4 | Adding flit 8 to VC 0 at input 6 (state: idle, empty).
6 | network_0/router_level2_4 | Using precomputed lookahead routing information for VC 0 at input 6 (front: 8).
6 | network_0/router_level2_4/buf_6/vc_0 | Changing state from idle to vc_alloc.
6 | network_0/router_level2_4 | Beginning VC allocation for VC 0 at input 6 (front: 8).
6 | network_0/router_level2_4 |   Requesting VC 0 at output 13 (in_pri: 0, out_pri: 0).
6 | network_0/router_level2_4 |   Requesting VC 1 at output 13 (in_pri: 0, out_pri: 0).
6 | network_0/router_level2_4 |   Requesting VC 2 at output 13 (in_pri: 0, out_pri: 0).
6 | network_0/router_level2_4 |   Requesting VC 3 at output 13 (in_pri: 0, out_pri: 0).
6 | network_0/router_level2_4/vc_allocator | Input requests = [ 24 -> [ 52@0 53@0 54@0 55@0 ]  ], output requests = [ 52 -> [ 24@0 ]  53 -> [ 24@0 ]  54 -> [ 24@0 ]  55 -> [ 24@0 ]  ].
6 | network_0/router_level2_4/vc_allocator | Input grants = [ 24 -> 52  ], output grants = [ 52 -> 24  ].
6 | network_0/router_level2_4 | Assigning VC 0 at output 13 to VC 0 at input 6.
6 | network_0/router_level2_4 | Completed VC allocation for VC 0 at input 6 (front: 8).
6 | network_0/router_level2_4 |   Acquiring assigned VC 0 at output 13.
6 | network_0/router_level2_4/buf_6/vc_0 | Changing state from vc_alloc to active.
6 | network_0/router_level2_5 | Adding flit 3 to VC 0 at input 3 (state: idle, empty).
6 | network_0/router_level2_5 | Using precomputed lookahead routing information for VC 0 at input 3 (front: 3).
6 | network_0/router_level2_5/buf_3/vc_0 | Changing state from idle to vc_alloc.
6 | network_0/router_level2_5 | Adding flit 4 to VC 0 at input 4 (state: idle, empty).
6 | network_0/router_level2_5 | Using precomputed lookahead routing information for VC 0 at input 4 (front: 4).
6 | network_0/router_level2_5/buf_4/vc_0 | Changing state from idle to vc_alloc.
6 | network_0/router_level2_5 | Beginning VC allocation for VC 0 at input 3 (front: 3).
6 | network_0/router_level2_5 |   Requesting VC 0 at output 10 (in_pri: 0, out_pri: 0).
6 | network_0/router_level2_5 |   Requesting VC 1 at output 10 (in_pri: 0, out_pri: 0).
6 | network_0/router_level2_5 |   Requesting VC 2 at output 10 (in_pri: 0, out_pri: 0).
6 | network_0/router_level2_5 |   Requesting VC 3 at output 10 (in_pri: 0, out_pri: 0).
6 | network_0/router_level2_5 | Beginning VC allocation for VC 0 at input 4 (front: 4).
6 | network_0/router_level2_5 |   Requesting VC 0 at output 11 (in_pri: 0, out_pri: 0).
6 | network_0/router_level2_5 |   Requesting VC 1 at output 11 (in_pri: 0, out_pri: 0).
6 | network_0/router_level2_5 |   Requesting VC 2 at output 11 (in_pri: 0, out_pri: 0).
6 | network_0/router_level2_5 |   Requesting VC 3 at output 11 (in_pri: 0, out_pri: 0).
6 | network_0/router_level2_5/vc_allocator | Input requests = [ 12 -> [ 40@0 41@0 42@0 43@0 ]  16 -> [ 44@0 45@0 46@0 47@0 ]  ], output requests = [ 40 -> [ 12@0 ]  41 -> [ 12@0 ]  42 -> [ 12@0 ]  43 -> [ 12@0 ]  44 -> [ 16@0 ]  45 -> [ 16@0 ]  46 -> [ 16@0 ]  47 -> [ 16@0 ]  ].
6 | network_0/router_level2_5/vc_allocator | Input grants = [ 12 -> 40  16 -> 44  ], output grants = [ 40 -> 12  44 -> 16  ].
6 | network_0/router_level2_5 | Assigning VC 0 at output 10 to VC 0 at input 3.
6 | network_0/router_level2_5 | Assigning VC 0 at output 11 to VC 0 at input 4.
6 | network_0/router_level2_5 | Completed VC allocation for VC 0 at input 3 (front: 3).
6 | network_0/router_level2_5 |   Acquiring assigned VC 0 at output 10.
6 | network_0/router_level2_5/buf_3/vc_0 | Changing state from vc_alloc to active.
6 | network_0/router_level2_5 | Completed VC allocation for VC 0 at input 4 (front: 4).
6 | network_0/router_level2_5 |   Acquiring assigned VC 0 at output 11.
6 | network_0/router_level2_5/buf_4/vc_0 | Changing state from vc_alloc to active.
6 | network_0/router_level2_6 | Adding flit 7 to VC 0 at input 6 (state: idle, empty).
6 | network_0/router_level2_6 | Using precomputed lookahead routing information for VC 0 at input 6 (front: 7).
6 | network_0/router_level2_6/buf_6/vc_0 | Changing state from idle to vc_alloc.
6 | network_0/router_level2_6 | Beginning VC allocation for VC 0 at input 6 (front: 7).
6 | network_0/router_level2_6 |   Requesting VC 0 at output 12 (in_pri: 0, out_pri: 0).
6 | network_0/router_level2_6 |   Requesting VC 1 at output 12 (in_pri: 0, out_pri: 0).
6 | network_0/router_level2_6 |   Requesting VC 2 at output 12 (in_pri: 0, out_pri: 0).
6 | network_0/router_level2_6 |   Requesting VC 3 at output 12 (in_pri: 0, out_pri: 0).
6 | network_0/router_level2_6/vc_allocator | Input requests = [ 24 -> [ 48@0 49@0 50@0 51@0 ]  ], output requests = [ 48 -> [ 24@0 ]  49 -> [ 24@0 ]  50 -> [ 24@0 ]  51 -> [ 24@0 ]  ].
6 | network_0/router_level2_6/vc_allocator | Input grants = [ 24 -> 48  ], output grants = [ 48 -> 24  ].
6 | network_0/router_level2_6 | Assigning VC 0 at output 12 to VC 0 at input 6.
6 | network_0/router_level2_6 | Completed VC allocation for VC 0 at input 6 (front: 7).
6 | network_0/router_level2_6 |   Acquiring assigned VC 0 at output 12.
6 | network_0/router_level2_6/buf_6/vc_0 | Changing state from vc_alloc to active.
6 | network_0/router_level2_7 | Adding flit 2 to VC 0 at input 2 (state: idle, empty).
6 | network_0/router_level2_7 | Using precomputed lookahead routing information for VC 0 at input 2 (front: 2).
6 | network_0/router_level2_7/buf_2/vc_0 | Changing state from idle to vc_alloc.
6 | network_0/router_level2_7 | Adding flit 10 to VC 0 at input 7 (state: idle, empty).
6 | network_0/router_level2_7 | Using precomputed lookahead routing information for VC 0 at input 7 (front: 10).
6 | network_0/router_level2_7/buf_7/vc_0 | Changing state from idle to vc_alloc.
6 | network_0/router_level2_7 | Beginning VC allocation for VC 0 at input 2 (front: 2).
6 | network_0/router_level2_7 |   Requesting VC 0 at output 12 (in_pri: 0, out_pri: 0).
6 | network_0/router_level2_7 |   Requesting VC 1 at output 12 (in_pri: 0, out_pri: 0).
6 | network_0/router_level2_7 |   Requesting VC 2 at output 12 (in_pri: 0, out_pri: 0).
6 | network_0/router_level2_7 |   Requesting VC 3 at output 12 (in_pri: 0, out_pri: 0).
6 | network_0/router_level2_7 | Beginning VC allocation for VC 0 at input 7 (front: 10).
6 | network_0/router_level2_7 |   Requesting VC 0 at output 12 (in_pri: 0, out_pri: 0).
6 | network_0/router_level2_7 |   Requesting VC 1 at output 12 (in_pri: 0, out_pri: 0).
6 | network_0/router_level2_7 |   Requesting VC 2 at output 12 (in_pri: 0, out_pri: 0).
6 | network_0/router_level2_7 |   Requesting VC 3 at output 12 (in_pri: 0, out_pri: 0).
6 | network_0/router_level2_7/vc_allocator | Input requests = [ 8 -> [ 48@0 49@0 50@0 51@0 ]  28 -> [ 48@0 49@0 50@0 51@0 ]  ], output requests = [ 48 -> [ 8@0 28@0 ]  49 -> [ 8@0 28@0 ]  50 -> [ 8@0 28@0 ]  51 -> [ 8@0 28@0 ]  ].
6 | network_0/router_level2_7/vc_allocator | Input grants = [ 8 -> 48  ], output grants = [ 48 -> 8  ].
6 | network_0/router_level2_7 | Assigning VC 0 at output 12 to VC 0 at input 2.
6 | network_0/router_level2_7 | VC allocation failed for VC 0 at input 7.
6 | network_0/router_level2_7 | Completed VC allocation for VC 0 at input 2 (front: 2).
6 | network_0/router_level2_7 |   Acquiring assigned VC 0 at output 12.
6 | network_0/router_level2_7/buf_2/vc_0 | Changing state from vc_alloc to active.
6 | network_0/router_level2_7 | Completed VC allocation for VC 0 at input 7 (front: 10).
6 | network_0/router_level2_7 |   No output VC allocated.
6 | network_0/router_level3_6 | Beginning crossbar traversal for flit 9 from input 7.0 to output 12.0.
6 | network_0/router_level3_6 | Completed crossbar traversal for flit 9 from input 7.0 to output 12.0.
6 | network_0/router_level3_6 | Buffering flit 9 at output 12.
6 | network_0/router_level3_6 | Sending flit 9 to channel at output 12.
7 | network_0/network_0_fchan_20532 | Beginning channel traversal for flit 9 with delay 1.
7 | network_0/router_level2_0 | Beginning switch allocation for VC 0 at input 1 (front: 1).
7 | network_0/router_level2_0 |   Requesting output 11.0 (non-spec, pri: 0).
7 | network_0/router_level2_0/sw_allocator | Input requests = [ 1 -> [ 11@0 ]  ], output requests = [ 11 -> [ 1@0 ]  ].
7 | network_0/router_level2_0/sw_allocator | Input grants = [ 1 -> 11  ], output grants = [ 11 -> 1  ].
7 | network_0/router_level2_0 | Assigning output 11.0 to VC 0 at input 1.0.
7 | network_0/router_level2_0 | Completed switch allocation for VC 0 at input 1 (front: 1).
7 | network_0/router_level2_0 |   Scheduling switch connection from input 1.0 to output 11.0.
7 | network_0/router_level2_0 | Updating lookahead routing information for flit 1.
7 | network_0/router_level2_1 | Beginning switch allocation for VC 0 at input 5 (front: 5).
7 | network_0/router_level2_1 |   Requesting output 13.0 (non-spec, pri: 0).
7 | network_0/router_level2_1/sw_allocator | Input requests = [ 5 -> [ 13@0 ]  7 -> [ 9@0 ]  ], output requests = [ 9 -> [ 7@0 ]  13 -> [ 5@0 ]  ].
7 | network_0/router_level2_1/sw_allocator | Input grants = [ 5 -> 13  7 -> 9  ], output grants = [ 9 -> 7  13 -> 5  ].
7 | network_0/router_level2_1 | Assigning output 13.0 to VC 0 at input 5.0.
7 | network_0/router_level2_1 | Completed switch allocation for VC 0 at input 5 (front: 5).
7 | network_0/router_level2_1 |   Scheduling switch connection from input 5.0 to output 13.0.
7 | network_0/router_level2_1 | Updating lookahead routing information for flit 5.
7 | network_0/router_level2_3 | Beginning switch allocation for VC 0 at input 5 (front: 6).
7 | network_0/router_level2_3 |   Requesting output 11.0 (non-spec, pri: 0).
7 | network_0/router_level2_3/sw_allocator | Input requests = [ 5 -> [ 11@0 ]  ], output requests = [ 11 -> [ 5@0 ]  ].
7 | network_0/router_level2_3/sw_allocator | Input grants = [ 5 -> 11  ], output grants = [ 11 -> 5  ].
7 | network_0/router_level2_3 | Assigning output 11.0 to VC 0 at input 5.0.
7 | network_0/router_level2_3 | Completed switch allocation for VC 0 at input 5 (front: 6).
7 | network_0/router_level2_3 |   Scheduling switch connection from input 5.0 to output 11.0.
7 | network_0/router_level2_3 | Updating lookahead routing information for flit 6.
7 | network_0/router_level2_4 | Beginning switch allocation for VC 0 at input 6 (front: 8).
7 | network_0/router_level2_4 |   Requesting output 13.0 (non-spec, pri: 0).
7 | network_0/router_level2_4/sw_allocator | Input requests = [ 6 -> [ 13@0 ]  ], output requests = [ 13 -> [ 6@0 ]  ].
7 | network_0/router_level2_4/sw_allocator | Input grants = [ 6 -> 13  ], output grants = [ 13 -> 6  ].
7 | network_0/router_level2_4 | Assigning output 13.0 to VC 0 at input 6.0.
7 | network_0/router_level2_4 | Completed switch allocation for VC 0 at input 6 (front: 8).
7 | network_0/router_level2_4 |   Scheduling switch connection from input 6.0 to output 13.0.
7 | network_0/router_level2_4 | Updating lookahead routing information for flit 8.
7 | network_0/router_level2_5 | Beginning switch allocation for VC 0 at input 3 (front: 3).
7 | network_0/router_level2_5 |   Requesting output 10.0 (non-spec, pri: 0).
7 | network_0/router_level2_5 | Beginning switch allocation for VC 0 at input 4 (front: 4).
7 | network_0/router_level2_5 |   Requesting output 11.0 (non-spec, pri: 0).
7 | network_0/router_level2_5/sw_allocator | Input requests = [ 3 -> [ 10@0 ]  4 -> [ 11@0 ]  ], output requests = [ 10 -> [ 3@0 ]  11 -> [ 4@0 ]  ].
7 | network_0/router_level2_5/sw_allocator | Input grants = [ 3 -> 10  4 -> 11  ], output grants = [ 10 -> 3  11 -> 4  ].
7 | network_0/router_level2_5 | Assigning output 10.0 to VC 0 at input 3.0.
7 | network_0/router_level2_5 | Assigning output 11.0 to VC 0 at input 4.0.
7 | network_0/router_level2_5 | Completed switch allocation for VC 0 at input 3 (front: 3).
7 | network_0/router_level2_5 |   Scheduling switch connection from input 3.0 to output 10.0.
7 | network_0/router_level2_5 | Updating lookahead routing information for flit 3.
7 | network_0/router_level2_5 | Completed switch allocation for VC 0 at input 4 (front: 4).
7 | network_0/router_level2_5 |   Scheduling switch connection from input 4.0 to output 11.0.
7 | network_0/router_level2_5 | Updating lookahead routing information for flit 4.
7 | network_0/router_level2_6 | Beginning switch allocation for VC 0 at input 6 (front: 7).
7 | network_0/router_level2_6 |   Requesting output 12.0 (non-spec, pri: 0).
7 | network_0/router_level2_6/sw_allocator | Input requests = [ 6 -> [ 12@0 ]  ], output requests = [ 12 -> [ 6@0 ]  ].
7 | network_0/router_level2_6/sw_allocator | Input grants = [ 6 -> 12  ], output grants = [ 12 -> 6  ].
7 | network_0/router_level2_6 | Assigning output 12.0 to VC 0 at input 6.0.
7 | network_0/router_level2_6 | Completed switch allocation for VC 0 at input 6 (front: 7).
7 | network_0/router_level2_6 |   Scheduling switch connection from input 6.0 to output 12.0.
7 | network_0/router_level2_6 | Updating lookahead routing information for flit 7.
7 | network_0/router_level2_7 | Beginning VC allocation for VC 0 at input 7 (front: 10).
7 | network_0/router_level2_7 |   VC 0 at output 12 is in use by VC 0 at input 2 (front flit: 2).
7 | network_0/router_level2_7 |   Requesting VC 1 at output 12 (in_pri: 0, out_pri: 0).
7 | network_0/router_level2_7 |   Requesting VC 2 at output 12 (in_pri: 0, out_pri: 0).
7 | network_0/router_level2_7 |   Requesting VC 3 at output 12 (in_pri: 0, out_pri: 0).
7 | network_0/router_level2_7/vc_allocator | Input requests = [ 0 -> [ 49@0 50@0 51@0 ]  9 -> [ 32@0 33@0 34@0 35@0 ]  28 -> [ 49@0 50@0 51@0 ]  ], output requests = [ 32 -> [ 9@0 ]  33 -> [ 9@0 ]  34 -> [ 9@0 ]  35 -> [ 9@0 ]  49 -> [ 0@0 28@0 ]  50 -> [ 0@0 28@0 ]  51 -> [ 0@0 28@0 ]  ].
7 | network_0/router_level2_7/vc_allocator | Input grants = [ 0 -> 49  9 -> 32  ], output grants = [ 32 -> 9  49 -> 0  ].
7 | network_0/router_level2_7 | VC allocation failed for VC 0 at input 7.
7 | network_0/router_level2_7 | Beginning switch allocation for VC 0 at input 2 (front: 2).
7 | network_0/router_level2_7 |   Requesting output 12.0 (non-spec, pri: 0).
7 | network_0/router_level2_7/sw_allocator | Input requests = [ 2 -> [ 12@0 ]  ], output requests = [ 12 -> [ 2@0 ]  ].
7 | network_0/router_level2_7/sw_allocator | Input grants = [ 2 -> 12  ], output grants = [ 12 -> 2  ].
7 | network_0/router_level2_7 | Assigning output 12.0 to VC 0 at input 2.0.
7 | network_0/router_level2_7 | Completed VC allocation for VC 0 at input 7 (front: 10).
7 | network_0/router_level2_7 |   No output VC allocated.
7 | network_0/router_level2_7 | Completed switch allocation for VC 0 at input 2 (front: 2).
7 | network_0/router_level2_7 |   Scheduling switch connection from input 2.0 to output 12.0.
7 | network_0/router_level2_7 | Updating lookahead routing information for flit 2.
7 | network_0/network_0_fchan_20532 | Completed channel traversal for flit 9.
8 | network_0/router_level2_4 | Received flit 9 from channel at input 6.
8 | network_0/router_level2_0 | Beginning crossbar traversal for flit 1 from input 1.0 to output 11.0.
8 | network_0/router_level2_0 | Completed crossbar traversal for flit 1 from input 1.0 to output 11.0.
8 | network_0/router_level2_0 | Buffering flit 1 at output 11.
8 | network_0/router_level2_1 | Beginning crossbar traversal for flit 5 from input 5.0 to output 13.0.
8 | network_0/router_level2_1 | Completed crossbar traversal for flit 5 from input 5.0 to output 13.0.
8 | network_0/router_level2_1 | Buffering flit 5 at output 13.
8 | network_0/router_level2_3 | Beginning crossbar traversal for flit 6 from input 5.0 to output 11.0.
8 | network_0/router_level2_3 | Completed crossbar traversal for flit 6 from input 5.0 to output 11.0.
8 | network_0/router_level2_3 | Buffering flit 6 at output 11.
8 | network_0/router_level2_4 | Adding flit 9 to VC 0 at input 6 (state: idle, empty).
8 | network_0/router_level2_4 | Using precomputed lookahead routing information for VC 0 at input 6 (front: 9).
8 | network_0/router_level2_4/buf_6/vc_0 | Changing state from idle to vc_alloc.
8 | network_0/router_level2_4 | Beginning VC allocation for VC 0 at input 6 (front: 9).
8 | network_0/router_level2_4 |   Requesting VC 0 at output 14 (in_pri: 0, out_pri: 0).
8 | network_0/router_level2_4 |   Requesting VC 1 at output 14 (in_pri: 0, out_pri: 0).
8 | network_0/router_level2_4 |   Requesting VC 2 at output 14 (in_pri: 0, out_pri: 0).
8 | network_0/router_level2_4 |   Requesting VC 3 at output 14 (in_pri: 0, out_pri: 0).
8 | network_0/router_level2_4/vc_allocator | Input requests = [ 12 -> [ 44@0 45@0 46@0 47@0 ]  21 -> [ 40@0 41@0 42@0 43@0 ]  24 -> [ 56@0 57@0 58@0 59@0 ]  ], output requests = [ 40 -> [ 21@0 ]  41 -> [ 21@0 ]  42 -> [ 21@0 ]  43 -> [ 21@0 ]  44 -> [ 12@0 ]  45 -> [ 12@0 ]  46 -> [ 12@0 ]  47 -> [ 12@0 ]  56 -> [ 24@0 ]  57 -> [ 24@0 ]  58 -> [ 24@0 ]  59 -> [ 24@0 ]  ].
8 | network_0/router_level2_4/vc_allocator | Input grants = [ 12 -> 44  21 -> 40  24 -> 56  ], output grants = [ 40 -> 21  44 -> 12  56 -> 24  ].
8 | network_0/router_level2_4 | Assigning VC 0 at output 14 to VC 0 at input 6.
8 | network_0/router_level2_4 | Beginning crossbar traversal for flit 8 from input 6.0 to output 13.0.
8 | network_0/router_level2_4 | Completed VC allocation for VC 0 at input 6 (front: 9).
8 | network_0/router_level2_4 |   Acquiring assigned VC 0 at output 14.
8 | network_0/router_level2_4/buf_6/vc_0 | Changing state from vc_alloc to active.
8 | network_0/router_level2_4 | Completed crossbar traversal for flit 8 from input 6.0 to output 13.0.
8 | network_0/router_level2_4 | Buffering flit 8 at output 13.
8 | network_0/router_level2_5 | Beginning crossbar traversal for flit 3 from input 3.0 to output 10.0.
8 | network_0/router_level2_5 | Beginning crossbar traversal for flit 4 from input 4.0 to output 11.0.
8 | network_0/router_level2_5 | Completed crossbar traversal for flit 3 from input 3.0 to output 10.0.
8 | network_0/router_level2_5 | Buffering flit 3 at output 10.
8 | network_0/router_level2_5 | Completed crossbar traversal for flit 4 from input 4.0 to output 11.0.
8 | network_0/router_level2_5 | Buffering flit 4 at output 11.
8 | network_0/router_level2_6 | Beginning crossbar traversal for flit 7 from input 6.0 to output 12.0.
8 | network_0/router_level2_6 | Completed crossbar traversal for flit 7 from input 6.0 to output 12.0.
8 | network_0/router_level2_6 | Buffering flit 7 at output 12.
8 | network_0/router_level2_7 | Beginning VC allocation for VC 0 at input 7 (front: 10).
8 | network_0/router_level2_7 |   Requesting VC 0 at output 12 (in_pri: 0, out_pri: 0).
8 | network_0/router_level2_7 |   VC 1 at output 12 is in use by VC 0 at input 0 (front flit: 951).
8 | network_0/router_level2_7 |   Requesting VC 2 at output 12 (in_pri: 0, out_pri: 0).
8 | network_0/router_level2_7 |   Requesting VC 3 at output 12 (in_pri: 0, out_pri: 0).
8 | network_0/router_level2_7/vc_allocator | Input requests = [ 28 -> [ 48@0 50@0 51@0 ]  ], output requests = [ 48 -> [ 28@0 ]  50 -> [ 28@0 ]  51 -> [ 28@0 ]  ].
8 | network_0/router_level2_7/vc_allocator | Input grants = [ 28 -> 48  ], output grants = [ 48 -> 28  ].
8 | network_0/router_level2_7 | Assigning VC 0 at output 12 to VC 0 at input 7.
8 | network_0/router_level2_7 | Beginning crossbar traversal for flit 2 from input 2.0 to output 12.0.
8 | network_0/router_level2_7 | Completed VC allocation for VC 0 at input 7 (front: 10).
8 | network_0/router_level2_7 |   Acquiring assigned VC 0 at output 12.
8 | network_0/router_level2_7/buf_7/vc_0 | Changing state from vc_alloc to active.
8 | network_0/router_level2_7 | Completed crossbar traversal for flit 2 from input 2.0 to output 12.0.
8 | network_0/router_level2_7 | Buffering flit 2 at output 12.
8 | network_0/router_level2_0 | Sending flit 1 to channel at output 11.
8 | network_0/router_level2_1 | Sending flit 5 to channel at output 13.
8 | network_0/router_level2_3 | Sending flit 6 to channel at output 11.
8 | network_0/router_level2_4 | Sending flit 8 to channel at output 13.
8 | network_0/router_level2_5 | Sending flit 3 to channel at output 10.
8 | network_0/router_level2_5 | Sending flit 4 to channel at output 11.
8 | network_0/router_level2_6 | Sending flit 7 to channel at output 12.
8 | network_0/router_level2_7 | Sending flit 2 to channel at output 12.
9 | network_0/network_0_fchan_12291 | Beginning channel traversal for flit 1 with delay 1.
9 | network_0/network_0_fchan_12301 | Beginning channel traversal for flit 5 with delay 1.
9 | network_0/network_0_fchan_12315 | Beginning channel traversal for flit 6 with delay 1.
9 | network_0/network_0_fchan_12325 | Beginning channel traversal for flit 8 with delay 1.
9 | network_0/network_0_fchan_12330 | Beginning channel traversal for flit 3 with delay 1.
9 | network_0/network_0_fchan_12331 | Beginning channel traversal for flit 4 with delay 1.
9 | network_0/network_0_fchan_12340 | Beginning channel traversal for flit 7 with delay 1.
9 | network_0/network_0_fchan_12348 | Beginning channel traversal for flit 2 with delay 1.
9 | network_0/router_level2_4 | Beginning switch allocation for VC 0 at input 6 (front: 9).
9 | network_0/router_level2_4 |   Requesting output 14.0 (non-spec, pri: 0).
9 | network_0/router_level2_4/sw_allocator | Input requests = [ 3 -> [ 11@0 ]  5 -> [ 10@0 ]  6 -> [ 14@0 ]  ], output requests = [ 10 -> [ 5@0 ]  11 -> [ 3@0 ]  14 -> [ 6@0 ]  ].
9 | network_0/router_level2_4/sw_allocator | Input grants = [ 3 -> 11  5 -> 10  6 -> 14  ], output grants = [ 10 -> 5  11 -> 3  14 -> 6  ].
9 | network_0/router_level2_4 | Assigning output 14.0 to VC 0 at input 6.0.
9 | network_0/router_level2_4 | Completed switch allocation for VC 0 at input 6 (front: 9).
9 | network_0/router_level2_4 |   Scheduling switch connection from input 6.0 to output 14.0.
9 | network_0/router_level2_4 | Updating lookahead routing information for flit 9.
9 | network_0/router_level2_7 | Beginning switch allocation for VC 0 at input 7 (front: 10).
9 | network_0/router_level2_7 |   Requesting output 12.0 (non-spec, pri: 0).
9 | network_0/router_level2_7/sw_allocator | Input requests = [ 7 -> [ 12@0 ]  ], output requests = [ 12 -> [ 7@0 ]  ].
9 | network_0/router_level2_7/sw_allocator | Input grants = [ 7 -> 12  ], output grants = [ 12 -> 7  ].
9 | network_0/router_level2_7 | Assigning output 12.0 to VC 0 at input 7.0.
9 | network_0/router_level2_7 | Completed switch allocation for VC 0 at input 7 (front: 10).
9 | network_0/router_level2_7 |   Scheduling switch connection from input 7.0 to output 12.0.
9 | network_0/router_level2_7 | Updating lookahead routing information for flit 10.
9 | network_0/network_0_fchan_12291 | Completed channel traversal for flit 1.
9 | network_0/network_0_fchan_12301 | Completed channel traversal for flit 5.
9 | network_0/network_0_fchan_12315 | Completed channel traversal for flit 6.
9 | network_0/network_0_fchan_12325 | Completed channel traversal for flit 8.
9 | network_0/network_0_fchan_12330 | Completed channel traversal for flit 3.
9 | network_0/network_0_fchan_12331 | Completed channel traversal for flit 4.
9 | network_0/network_0_fchan_12340 | Completed channel traversal for flit 7.
9 | network_0/network_0_fchan_12348 | Completed channel traversal for flit 2.
10 | network_0/router_level1_21 | Received flit 3 from channel at input 0.
10 | network_0/router_level1_24 | Received flit 1 from channel at input 0.
10 | network_0/router_level1_27 | Received flit 6 from channel at input 0.
10 | network_0/router_level1_29 | Received flit 4 from channel at input 0.
10 | network_0/router_level1_38 | Received flit 7 from channel at input 0.
10 | network_0/router_level1_39 | Received flit 2 from channel at input 0.
10 | network_0/router_level1_41 | Received flit 5 from channel at input 0.
10 | network_0/router_level1_44 | Received flit 8 from channel at input 0.
10 | network_0/router_level1_21 | Adding flit 3 to VC 0 at input 0 (state: idle, empty).
10 | network_0/router_level1_21 | Using precomputed lookahead routing information for VC 0 at input 0 (front: 3).
10 | network_0/router_level1_21/buf_0/vc_0 | Changing state from idle to vc_alloc.
10 | network_0/router_level1_21 | Beginning VC allocation for VC 0 at input 0 (front: 3).
10 | network_0/router_level1_21 |   Requesting VC 0 at output 9 (in_pri: 0, out_pri: 0).
10 | network_0/router_level1_21 |   Requesting VC 1 at output 9 (in_pri: 0, out_pri: 0).
10 | network_0/router_level1_21 |   Requesting VC 2 at output 9 (in_pri: 0, out_pri: 0).
10 | network_0/router_level1_21 |   Requesting VC 3 at output 9 (in_pri: 0, out_pri: 0).
10 | network_0/router_level1_21/vc_allocator | Input requests = [ 0 -> [ 36@0 37@0 38@0 39@0 ]  ], output requests = [ 36 -> [ 0@0 ]  37 -> [ 0@0 ]  38 -> [ 0@0 ]  39 -> [ 0@0 ]  ].
10 | network_0/router_level1_21/vc_allocator | Input grants = [ 0 -> 36  ], output grants = [ 36 -> 0  ].
10 | network_0/router_level1_21 | Assigning VC 0 at output 9 to VC 0 at input 0.
10 | network_0/router_level1_21 | Completed VC allocation for VC 0 at input 0 (front: 3).
10 | network_0/router_level1_21 |   Acquiring assigned VC 0 at output 9.
10 | network_0/router_level1_21/buf_0/vc_0 | Changing state from vc_alloc to active.
10 | network_0/router_level1_24 | Adding flit 1 to VC 0 at input 0 (state: idle, empty).
10 | network_0/router_level1_24 | Using precomputed lookahead routing information for VC 0 at input 0 (front: 1).
10 | network_0/router_level1_24/buf_0/vc_0 | Changing state from idle to vc_alloc.
10 | network_0/router_level1_24 | Beginning VC allocation for VC 0 at input 0 (front: 1).
10 | network_0/router_level1_24 |   Requesting VC 0 at output 9 (in_pri: 0, out_pri: 0).
10 | network_0/router_level1_24 |   Requesting VC 1 at output 9 (in_pri: 0, out_pri: 0).
10 | network_0/router_level1_24 |   Requesting VC 2 at output 9 (in_pri: 0, out_pri: 0).
10 | network_0/router_level1_24 |   Requesting VC 3 at output 9 (in_pri: 0, out_pri: 0).
10 | network_0/router_level1_24/vc_allocator | Input requests = [ 0 -> [ 36@0 37@0 38@0 39@0 ]  12 -> [ 32@0 33@0 34@0 35@0 ]  28 -> [ 36@0 37@0 38@0 39@0 ]  ], output requests = [ 32 -> [ 12@0 ]  33 -> [ 12@0 ]  34 -> [ 12@0 ]  35 -> [ 12@0 ]  36 -> [ 0@0 28@0 ]  37 -> [ 0@0 28@0 ]  38 -> [ 0@0 28@0 ]  39 -> [ 0@0 28@0 ]  ].
10 | network_0/router_level1_24/vc_allocator | Input grants = [ 0 -> 36  12 -> 32  ], output grants = [ 32 -> 12  36 -> 0  ].
10 | network_0/router_level1_24 | Assigning VC 0 at output 9 to VC 0 at input 0.
10 | network_0/router_level1_24 | Completed VC allocation for VC 0 at input 0 (front: 1).
10 | network_0/router_level1_24 |   Acquiring assigned VC 0 at output 9.
10 | network_0/router_level1_24/buf_0/vc_0 | Changing state from vc_alloc to active.
10 | network_0/router_level1_27 | Adding flit 6 to VC 0 at input 0 (state: idle, empty).
10 | network_0/router_level1_27 | Using precomputed lookahead routing information for VC 0 at input 0 (front: 6).
10 | network_0/router_level1_27/buf_0/vc_0 | Changing state from idle to vc_alloc.
10 | network_0/router_level1_27 | Beginning VC allocation for VC 0 at input 0 (front: 6).
10 | network_0/router_level1_27 |   Requesting VC 0 at output 8 (in_pri: 0, out_pri: 0).
10 | network_0/router_level1_27 |   Requesting VC 1 at output 8 (in_pri: 0, out_pri: 0).
10 | network_0/router_level1_27 |   Requesting VC 2 at output 8 (in_pri: 0, out_pri: 0).
10 | network_0/router_level1_27 |   Requesting VC 3 at output 8 (in_pri: 0, out_pri: 0).
10 | network_0/router_level1_27/vc_allocator | Input requests = [ 0 -> [ 32@0 33@0 34@0 35@0 ]  12 -> [ 8@0 9@0 10@0 11@0 ]  16 -> [ 32@0 33@0 34@0 35@0 ]  20 -> [ 36@0 37@0 38@0 39@0 ]  ], output requests = [ 8 -> [ 12@0 ]  9 -> [ 12@0 ]  10 -> [ 12@0 ]  11 -> [ 12@0 ]  32 -> [ 0@0 16@0 ]  33 -> [ 0@0 16@0 ]  34 -> [ 0@0 16@0 ]  35 -> [ 0@0 16@0 ]  36 -> [ 20@0 ]  37 -> [ 20@0 ]  38 -> [ 20@0 ]  39 -> [ 20@0 ]  ].
10 | network_0/router_level1_27/vc_allocator | Input grants = [ 0 -> 32  12 -> 8  20 -> 36  ], output grants = [ 8 -> 12  32 -> 0  36 -> 20  ].
10 | network_0/router_level1_27 | Assigning VC 0 at output 8 to VC 0 at input 0.
10 | network_0/router_level1_27 | Completed VC allocation for VC 0 at input 0 (front: 6).
10 | network_0/router_level1_27 |   Acquiring assigned VC 0 at output 8.
10 | network_0/router_level1_27/buf_0/vc_0 | Changing state from vc_alloc to active.
10 | network_0/router_level1_29 | Adding flit 4 to VC 0 at input 0 (state: idle, empty).
10 | network_0/router_level1_29 | Using precomputed lookahead routing information for VC 0 at input 0 (front: 4).
10 | network_0/router_level1_29/buf_0/vc_0 | Changing state from idle to vc_alloc.
10 | network_0/router_level1_29 | Beginning VC allocation for VC 0 at input 0 (front: 4).
10 | network_0/router_level1_29 |   Requesting VC 0 at output 9 (in_pri: 0, out_pri: 0).
10 | network_0/router_level1_29 |   Requesting VC 1 at output 9 (in_pri: 0, out_pri: 0).
10 | network_0/router_level1_29 |   Requesting VC 2 at output 9 (in_pri: 0, out_pri: 0).
10 | network_0/router_level1_29 |   Requesting VC 3 at output 9 (in_pri: 0, out_pri: 0).
10 | network_0/router_level1_29/vc_allocator | Input requests = [ 0 -> [ 36@0 37@0 38@0 39@0 ]  28 -> [ 36@0 37@0 38@0 39@0 ]  ], output requests = [ 36 -> [ 0@0 28@0 ]  37 -> [ 0@0 28@0 ]  38 -> [ 0@0 28@0 ]  39 -> [ 0@0 28@0 ]  ].
10 | network_0/router_level1_29/vc_allocator | Input grants = [ 0 -> 36  ], output grants = [ 36 -> 0  ].
10 | network_0/router_level1_29 | Assigning VC 0 at output 9 to VC 0 at input 0.
10 | network_0/router_level1_29 | Completed VC allocation for VC 0 at input 0 (front: 4).
10 | network_0/router_level1_29 |   Acquiring assigned VC 0 at output 9.
10 | network_0/router_level1_29/buf_0/vc_0 | Changing state from vc_alloc to active.
10 | network_0/router_level1_38 | Adding flit 7 to VC 0 at input 0 (state: idle, empty).
10 | network_0/router_level1_38 | Using precomputed lookahead routing information for VC 0 at input 0 (front: 7).
10 | network_0/router_level1_38/buf_0/vc_0 | Changing state from idle to vc_alloc.
10 | network_0/router_level1_38 | Beginning VC allocation for VC 0 at input 0 (front: 7).
10 | network_0/router_level1_38 |   Requesting VC 0 at output 9 (in_pri: 0, out_pri: 0).
10 | network_0/router_level1_38 |   Requesting VC 1 at output 9 (in_pri: 0, out_pri: 0).
10 | network_0/router_level1_38 |   Requesting VC 2 at output 9 (in_pri: 0, out_pri: 0).
10 | network_0/router_level1_38 |   Requesting VC 3 at output 9 (in_pri: 0, out_pri: 0).
10 | network_0/router_level1_38/vc_allocator | Input requests = [ 0 -> [ 36@0 37@0 38@0 39@0 ]  20 -> [ 36@0 37@0 38@0 39@0 ]  ], output requests = [ 36 -> [ 0@0 20@0 ]  37 -> [ 0@0 20@0 ]  38 -> [ 0@0 20@0 ]  39 -> [ 0@0 20@0 ]  ].
10 | network_0/router_level1_38/vc_allocator | Input grants = [ 0 -> 36  ], output grants = [ 36 -> 0  ].
10 | network_0/router_level1_38 | Assigning VC 0 at output 9 to VC 0 at input 0.
10 | network_0/router_level1_38 | Completed VC allocation for VC 0 at input 0 (front: 7).
10 | network_0/router_level1_38 |   Acquiring assigned VC 0 at output 9.
10 | network_0/router_level1_38/buf_0/vc_0 | Changing state from vc_alloc to active.
10 | network_0/router_level1_39 | Adding flit 2 to VC 0 at input 0 (state: idle, empty).
10 | network_0/router_level1_39 | Using precomputed lookahead routing information for VC 0 at input 0 (front: 2).
10 | network_0/router_level1_39/buf_0/vc_0 | Changing state from idle to vc_alloc.
10 | network_0/router_level1_39 | Beginning VC allocation for VC 0 at input 0 (front: 2).
10 | network_0/router_level1_39 |   Requesting VC 0 at output 9 (in_pri: 0, out_pri: 0).
10 | network_0/router_level1_39 |   Requesting VC 1 at output 9 (in_pri: 0, out_pri: 0).
10 | network_0/router_level1_39 |   Requesting VC 2 at output 9 (in_pri: 0, out_pri: 0).
10 | network_0/router_level1_39 |   Requesting VC 3 at output 9 (in_pri: 0, out_pri: 0).
10 | network_0/router_level1_39/vc_allocator | Input requests = [ 0 -> [ 36@0 37@0 38@0 39@0 ]  8 -> [ 12@0 13@0 14@0 15@0 ]  ], output requests = [ 12 -> [ 8@0 ]  13 -> [ 8@0 ]  14 -> [ 8@0 ]  15 -> [ 8@0 ]  36 -> [ 0@0 ]  37 -> [ 0@0 ]  38 -> [ 0@0 ]  39 -> [ 0@0 ]  ].
10 | network_0/router_level1_39/vc_allocator | Input grants = [ 0 -> 36  8 -> 12  ], output grants = [ 12 -> 8  36 -> 0  ].
10 | network_0/router_level1_39 | Assigning VC 0 at output 9 to VC 0 at input 0.
10 | network_0/router_level1_39 | Completed VC allocation for VC 0 at input 0 (front: 2).
10 | network_0/router_level1_39 |   Acquiring assigned VC 0 at output 9.
10 | network_0/router_level1_39/buf_0/vc_0 | Changing state from vc_alloc to active.
10 | network_0/router_level1_41 | Adding flit 5 to VC 0 at input 0 (state: idle, empty).
10 | network_0/router_level1_41 | Using precomputed lookahead routing information for VC 0 at input 0 (front: 5).
10 | network_0/router_level1_41/buf_0/vc_0 | Changing state from idle to vc_alloc.
10 | network_0/router_level1_41 | Beginning VC allocation for VC 0 at input 0 (front: 5).
10 | network_0/router_level1_41 |   Requesting VC 0 at output 9 (in_pri: 0, out_pri: 0).
10 | network_0/router_level1_41 |   Requesting VC 1 at output 9 (in_pri: 0, out_pri: 0).
10 | network_0/router_level1_41 |   Requesting VC 2 at output 9 (in_pri: 0, out_pri: 0).
10 | network_0/router_level1_41 |   Requesting VC 3 at output 9 (in_pri: 0, out_pri: 0).
10 | network_0/router_level1_41/vc_allocator | Input requests = [ 0 -> [ 36@0 37@0 38@0 39@0 ]  ], output requests = [ 36 -> [ 0@0 ]  37 -> [ 0@0 ]  38 -> [ 0@0 ]  39 -> [ 0@0 ]  ].
10 | network_0/router_level1_41/vc_allocator | Input grants = [ 0 -> 36  ], output grants = [ 36 -> 0  ].
10 | network_0/router_level1_41 | Assigning VC 0 at output 9 to VC 0 at input 0.
10 | network_0/router_level1_41 | Completed VC allocation for VC 0 at input 0 (front: 5).
10 | network_0/router_level1_41 |   Acquiring assigned VC 0 at output 9.
10 | network_0/router_level1_41/buf_0/vc_0 | Changing state from vc_alloc to active.
10 | network_0/router_level1_44 | Adding flit 8 to VC 0 at input 0 (state: idle, empty).
10 | network_0/router_level1_44 | Using precomputed lookahead routing information for VC 0 at input 0 (front: 8).
10 | network_0/router_level1_44/buf_0/vc_0 | Changing state from idle to vc_alloc.
10 | network_0/router_level1_44 | Beginning VC allocation for VC 0 at input 0 (front: 8).
10 | network_0/router_level1_44 |   Requesting VC 0 at output 9 (in_pri: 0, out_pri: 0).
10 | network_0/router_level1_44 |   Requesting VC 1 at output 9 (in_pri: 0, out_pri: 0).
10 | network_0/router_level1_44 |   Requesting VC 2 at output 9 (in_pri: 0, out_pri: 0).
10 | network_0/router_level1_44 |   Requesting VC 3 at output 9 (in_pri: 0, out_pri: 0).
10 | network_0/router_level1_44/vc_allocator | Input requests = [ 0 -> [ 36@0 37@0 38@0 39@0 ]  12 -> [ 36@0 37@0 38@0 39@0 ]  ], output requests = [ 36 -> [ 0@0 12@0 ]  37 -> [ 0@0 12@0 ]  38 -> [ 0@0 12@0 ]  39 -> [ 0@0 12@0 ]  ].
10 | network_0/router_level1_44/vc_allocator | Input grants = [ 0 -> 36  ], output grants = [ 36 -> 0  ].
10 | network_0/router_level1_44 | Assigning VC 0 at output 9 to VC 0 at input 0.
10 | network_0/router_level1_44 | Completed VC allocation for VC 0 at input 0 (front: 8).
10 | network_0/router_level1_44 |   Acquiring assigned VC 0 at output 9.
10 | network_0/router_level1_44/buf_0/vc_0 | Changing state from vc_alloc to active.
10 | network_0/router_level2_4 | Beginning crossbar traversal for flit 9 from input 6.0 to output 14.0.
10 | network_0/router_level2_4 | Completed crossbar traversal for flit 9 from input 6.0 to output 14.0.
10 | network_0/router_level2_4 | Buffering flit 9 at output 14.
10 | network_0/router_level2_7 | Beginning crossbar traversal for flit 10 from input 7.0 to output 12.0.
10 | network_0/router_level2_7 | Completed crossbar traversal for flit 10 from input 7.0 to output 12.0.
10 | network_0/router_level2_7 | Buffering flit 10 at output 12.
10 | network_0/router_level2_4 | Sending flit 9 to channel at output 14.
10 | network_0/router_level2_7 | Sending flit 10 to channel at output 12.
11 | network_0/network_0_fchan_12326 | Beginning channel traversal for flit 9 with delay 1.
11 | network_0/network_0_fchan_12348 | Beginning channel traversal for flit 10 with delay 1.
11 | network_0/router_level1_21 | Beginning switch allocation for VC 0 at input 0 (front: 3).
11 | network_0/router_level1_21 |   Requesting output 9.0 (non-spec, pri: 0).
11 | network_0/router_level1_21/sw_allocator | Input requests = [ 0 -> [ 9@0 ]  ], output requests = [ 9 -> [ 0@0 ]  ].
11 | network_0/router_level1_21/sw_allocator | Input grants = [ 0 -> 9  ], output grants = [ 9 -> 0  ].
11 | network_0/router_level1_21 | Assigning output 9.0 to VC 0 at input 0.0.
11 | network_0/router_level1_21 | Completed switch allocation for VC 0 at input 0 (front: 3).
11 | network_0/router_level1_21 |   Scheduling switch connection from input 0.0 to output 9.0.
11 | network_0/router_level1_21 | Updating lookahead routing information for flit 3.
11 | network_0/router_level1_24 | Beginning switch allocation for VC 0 at input 0 (front: 1).
11 | network_0/router_level1_24 |   Requesting output 9.0 (non-spec, pri: 0).
11 | network_0/router_level1_24/sw_allocator | Input requests = [ 0 -> [ 9@0 ]  3 -> [ 8@0 ]  ], output requests = [ 8 -> [ 3@0 ]  9 -> [ 0@0 ]  ].
11 | network_0/router_level1_24/sw_allocator | Input grants = [ 0 -> 9  3 -> 8  ], output grants = [ 8 -> 3  9 -> 0  ].
11 | network_0/router_level1_24 | Assigning output 9.0 to VC 0 at input 0.0.
11 | network_0/router_level1_24 | Completed switch allocation for VC 0 at input 0 (front: 1).
11 | network_0/router_level1_24 |   Scheduling switch connection from input 0.0 to output 9.0.
11 | network_0/router_level1_24 | Updating lookahead routing information for flit 1.
11 | network_0/router_level1_27 | Beginning switch allocation for VC 0 at input 0 (front: 6).
11 | network_0/router_level1_27 |   Requesting output 8.0 (non-spec, pri: 0).
11 | network_0/router_level1_27/sw_allocator | Input requests = [ 0 -> [ 8@0 ]  3 -> [ 2@0 ]  5 -> [ 9@0 ]  ], output requests = [ 2 -> [ 3@0 ]  8 -> [ 0@0 ]  9 -> [ 5@0 ]  ].
11 | network_0/router_level1_27/sw_allocator | Input grants = [ 0 -> 8  3 -> 2  5 -> 9  ], output grants = [ 2 -> 3  8 -> 0  9 -> 5  ].
11 | network_0/router_level1_27 | Assigning output 8.0 to VC 0 at input 0.0.
11 | network_0/router_level1_27 | Completed switch allocation for VC 0 at input 0 (front: 6).
11 | network_0/router_level1_27 |   Scheduling switch connection from input 0.0 to output 8.0.
11 | network_0/router_level1_27 | Updating lookahead routing information for flit 6.
11 | network_0/router_level1_29 | Beginning switch allocation for VC 0 at input 0 (front: 4).
11 | network_0/router_level1_29 |   Requesting output 9.0 (non-spec, pri: 0).
11 | network_0/router_level1_29/sw_allocator | Input requests = [ 0 -> [ 9@0 ]  ], output requests = [ 9 -> [ 0@0 ]  ].
11 | network_0/router_level1_29/sw_allocator | Input grants = [ 0 -> 9  ], output grants = [ 9 -> 0  ].
11 | network_0/router_level1_29 | Assigning output 9.0 to VC 0 at input 0.0.
11 | network_0/router_level1_29 | Completed switch allocation for VC 0 at input 0 (front: 4).
11 | network_0/router_level1_29 |   Scheduling switch connection from input 0.0 to output 9.0.
11 | network_0/router_level1_29 | Updating lookahead routing information for flit 4.
11 | network_0/router_level1_38 | Beginning switch allocation for VC 0 at input 0 (front: 7).
11 | network_0/router_level1_38 |   Requesting output 9.0 (non-spec, pri: 0).
11 | network_0/router_level1_38/sw_allocator | Input requests = [ 0 -> [ 9@0 ]  ], output requests = [ 9 -> [ 0@0 ]  ].
11 | network_0/router_level1_38/sw_allocator | Input grants = [ 0 -> 9  ], output grants = [ 9 -> 0  ].
11 | network_0/router_level1_38 | Assigning output 9.0 to VC 0 at input 0.0.
11 | network_0/router_level1_38 | Completed switch allocation for VC 0 at input 0 (front: 7).
11 | network_0/router_level1_38 |   Scheduling switch connection from input 0.0 to output 9.0.
11 | network_0/router_level1_38 | Updating lookahead routing information for flit 7.
11 | network_0/router_level1_39 | Beginning switch allocation for VC 0 at input 0 (front: 2).
11 | network_0/router_level1_39 |   Requesting output 9.0 (non-spec, pri: 0).
11 | network_0/router_level1_39/sw_allocator | Input requests = [ 0 -> [ 9@0 ]  2 -> [ 3@0 ]  ], output requests = [ 3 -> [ 2@0 ]  9 -> [ 0@0 ]  ].
11 | network_0/router_level1_39/sw_allocator | Input grants = [ 0 -> 9  2 -> 3  ], output grants = [ 3 -> 2  9 -> 0  ].
11 | network_0/router_level1_39 | Assigning output 9.0 to VC 0 at input 0.0.
11 | network_0/router_level1_39 | Completed switch allocation for VC 0 at input 0 (front: 2).
11 | network_0/router_level1_39 |   Scheduling switch connection from input 0.0 to output 9.0.
[...]
28 | network_0/router_level2_444 | Buffering flit 9 at output 0.
28 | network_0/router_level3_120 | Beginning crossbar traversal for flit 1 from input 8.0 to output 0.0.
28 | network_0/router_level3_120 | Completed crossbar traversal for flit 1 from input 8.0 to output 0.0.
28 | network_0/router_level3_120 | Buffering flit 1 at output 0.
28 | network_0/router_level3_144 | Beginning crossbar traversal for flit 2 from input 15.0 to output 0.0.
28 | network_0/router_level3_144 | Completed crossbar traversal for flit 2 from input 15.0 to output 0.0.
28 | network_0/router_level3_144 | Buffering flit 2 at output 0.
28 | network_0/router_level3_248 | Beginning crossbar traversal for flit 3 from input 13.0 to output 0.0.
28 | network_0/router_level3_248 | Completed crossbar traversal for flit 3 from input 13.0 to output 0.0.
28 | network_0/router_level3_248 | Buffering flit 3 at output 0.
28 | network_0/router_level3_272 | Beginning crossbar traversal for flit 4 from input 13.0 to output 0.0.
28 | network_0/router_level3_272 | Completed crossbar traversal for flit 4 from input 13.0 to output 0.0.
28 | network_0/router_level3_272 | Buffering flit 4 at output 0.
28 | network_0/router_level3_320 | Beginning crossbar traversal for flit 5 from input 9.0 to output 0.0.
28 | network_0/router_level3_320 | Completed crossbar traversal for flit 5 from input 9.0 to output 0.0.
28 | network_0/router_level3_320 | Buffering flit 5 at output 0.
28 | network_0/router_level3_376 | Beginning crossbar traversal for flit 6 from input 11.0 to output 0.0.
28 | network_0/router_level3_376 | Completed crossbar traversal for flit 6 from input 11.0 to output 0.0.
28 | network_0/router_level3_376 | Buffering flit 6 at output 0.
28 | network_0/router_level3_424 | Beginning VC allocation for VC 0 at input 14 (front: 7).
28 | network_0/router_level3_424 |   VC 0 at output 0 is in use by VC 0 at input 12 (front flit: 964).
28 | network_0/router_level3_424 |   Requesting VC 1 at output 0 (in_pri: 0, out_pri: 0).
28 | network_0/router_level3_424 |   Requesting VC 2 at output 0 (in_pri: 0, out_pri: 0).
28 | network_0/router_level3_424 |   Requesting VC 3 at output 0 (in_pri: 0, out_pri: 0).
28 | network_0/router_level3_424/vc_allocator | Input requests = [ 7 -> [ 32@0 33@0 34@0 35@0 ]  12 -> [ 48@0 49@0 50@0 51@0 ]  18 -> [ 40@0 41@0 42@0 43@0 ]  36 -> [ 16@0 17@0 18@0 19@0 ]  44 -> [ 28@0 29@0 30@0 31@0 ]  49 -> [ 28@0 29@0 30@0 31@0 ]  56 -> [ 1@0 2@0 3@0 ]  60 -> [ 8@0 9@0 10@0 11@0 ]  ], output requests = [ 1 -> [ 56@0 ]  2 -> [ 56@0 ]  3 -> [ 56@0 ]  8 -> [ 60@0 ]  9 -> [ 60@0 ]  10 -> [ 60@0 ]  11 -> [ 60@0 ]  16 -> [ 36@0 ]  17 -> [ 36@0 ]  18 -> [ 36@0 ]  19 -> [ 36@0 ]  28 -> [ 44@0 49@0 ]  29 -> [ 44@0 49@0 ]  30 -> [ 44@0 49@0 ]  31 -> [ 44@0 49@0 ]  32 -> [ 7@0 ]  33 -> [ 7@0 ]  34 -> [ 7@0 ]  35 -> [ 7@0 ]  40 -> [ 18@0 ]  41 -> [ 18@0 ]  42 -> [ 18@0 ]  43 -> [ 18@0 ]  48 -> [ 12@0 ]  49 -> [ 12@0 ]  50 -> [ 12@0 ]  51 -> [ 12@0 ]  ].
28 | network_0/router_level3_424/vc_allocator | Input grants = [ 7 -> 32  12 -> 48  18 -> 40  36 -> 16  44 -> 28  56 -> 1  60 -> 8  ], output grants = [ 1 -> 56  8 -> 60  16 -> 36  28 -> 44  32 -> 7  40 -> 18  48 -> 12  ].
28 | network_0/router_level3_424 | Assigning VC 1 at output 0 to VC 0 at input 14.
28 | network_0/router_level3_424 | Completed VC allocation for VC 0 at input 14 (front: 7).
28 | network_0/router_level3_424 |   Acquiring assigned VC 1 at output 0.
28 | network_0/router_level3_424/buf_14/vc_0 | Changing state from vc_alloc to active.
28 | network_0/router_level3_432 | Beginning crossbar traversal for flit 8 from input 12.0 to output 0.0.
28 | network_0/router_level3_432 | Completed crossbar traversal for flit 8 from input 12.0 to output 0.0.
28 | network_0/router_level3_432 | Buffering flit 8 at output 0.
28 | network_0/router_level3_464 | Adding flit 10 to VC 0 at input 15 (state: idle, empty).
28 | network_0/router_level3_464 | Using precomputed lookahead routing information for VC 0 at input 15 (front: 10).
28 | network_0/router_level3_464/buf_15/vc_0 | Changing state from idle to vc_alloc.
28 | network_0/router_level3_464 | Beginning VC allocation for VC 0 at input 15 (front: 10).
28 | network_0/router_level3_464 |   VC 0 at output 0 is in use by VC 1 at input 13 (front flit: 965).
28 | network_0/router_level3_464 |   Requesting VC 1 at output 0 (in_pri: 0, out_pri: 0).
28 | network_0/router_level3_464 |   Requesting VC 2 at output 0 (in_pri: 0, out_pri: 0).
28 | network_0/router_level3_464 |   Requesting VC 3 at output 0 (in_pri: 0, out_pri: 0).
28 | network_0/router_level3_464/vc_allocator | Input requests = [ 6 -> [ 60@0 61@0 62@0 63@0 ]  29 -> [ 48@0 49@0 50@0 51@0 ]  56 -> [ 28@0 29@0 30@0 31@0 ]  60 -> [ 1@0 2@0 3@0 ]  ], output requests = [ 1 -> [ 60@0 ]  2 -> [ 60@0 ]  3 -> [ 60@0 ]  28 -> [ 56@0 ]  29 -> [ 56@0 ]  30 -> [ 56@0 ]  31 -> [ 56@0 ]  48 -> [ 29@0 ]  49 -> [ 29@0 ]  50 -> [ 29@0 ]  51 -> [ 29@0 ]  60 -> [ 6@0 ]  61 -> [ 6@0 ]  62 -> [ 6@0 ]  63 -> [ 6@0 ]  ].
28 | network_0/router_level3_464/vc_allocator | Input grants = [ 6 -> 60  29 -> 48  56 -> 28  60 -> 1  ], output grants = [ 1 -> 60  28 -> 56  48 -> 29  60 -> 6  ].
28 | network_0/router_level3_464 | Assigning VC 1 at output 0 to VC 0 at input 15.
28 | network_0/router_level3_464 | Completed VC allocation for VC 0 at input 15 (front: 10).
28 | network_0/router_level3_464 |   Acquiring assigned VC 1 at output 0.
28 | network_0/router_level3_464/buf_15/vc_0 | Changing state from vc_alloc to active.
28 | network_0/router_level2_444 | Sending flit 9 to channel at output 0.
28 | network_0/router_level3_120 | Sending flit 1 to channel at output 0.
28 | network_0/router_level3_144 | Sending flit 2 to channel at output 0.
28 | network_0/router_level3_248 | Sending flit 3 to channel at output 0.
28 | network_0/router_level3_272 | Sending flit 4 to channel at output 0.
28 | network_0/router_level3_320 | Sending flit 5 to channel at output 0.
28 | network_0/router_level3_376 | Sending flit 6 to channel at output 0.
28 | network_0/router_level3_432 | Sending flit 8 to channel at output 0.
29 | network_0/network_0_fchan_egress960 | Beginning channel traversal for flit 1 with delay 1.
29 | network_0/network_0_fchan_egress1152 | Beginning channel traversal for flit 2 with delay 1.
29 | network_0/network_0_fchan_egress1984 | Beginning channel traversal for flit 3 with delay 1.
29 | network_0/network_0_fchan_egress2176 | Beginning channel traversal for flit 4 with delay 1.
29 | network_0/network_0_fchan_egress2560 | Beginning channel traversal for flit 5 with delay 1.
29 | network_0/network_0_fchan_egress3008 | Beginning channel traversal for flit 6 with delay 1.
29 | network_0/network_0_fchan_egress3456 | Beginning channel traversal for flit 8 with delay 1.
29 | network_0/network_0_fchan_19936 | Beginning channel traversal for flit 9 with delay 1.
29 | network_0/router_level3_424 | Beginning switch allocation for VC 0 at input 14 (front: 7).
29 | network_0/router_level3_424 |   Requesting output 0.0 (non-spec, pri: 0).
29 | network_0/router_level3_424/sw_allocator | Input requests = [ 1 -> [ 8@0 ]  3 -> [ 12@0 ]  4 -> [ 10@0 ]  9 -> [ 4@0 ]  11 -> [ 7@0 ]  14 -> [ 0@0 ]  15 -> [ 2@0 ]  ], output requests = [ 0 -> [ 14@0 ]  2 -> [ 15@0 ]  4 -> [ 9@0 ]  7 -> [ 11@0 ]  8 -> [ 1@0 ]  10 -> [ 4@0 ]  12 -> [ 3@0 ]  ].
29 | network_0/router_level3_424/sw_allocator | Input grants = [ 1 -> 8  3 -> 12  4 -> 10  9 -> 4  11 -> 7  14 -> 0  15 -> 2  ], output grants = [ 0 -> 14  2 -> 15  4 -> 9  7 -> 11  8 -> 1  10 -> 4  12 -> 3  ].
29 | network_0/router_level3_424 | Assigning output 0.0 to VC 0 at input 14.0.
29 | network_0/router_level3_424 | Completed switch allocation for VC 0 at input 14 (front: 7).
29 | network_0/router_level3_424 |   Scheduling switch connection from input 14.0 to output 0.0.
29 | network_0/router_level3_464 | Beginning switch allocation for VC 0 at input 15 (front: 10).
29 | network_0/router_level3_464 |   Requesting output 0.0 (non-spec, pri: 0).
29 | network_0/router_level3_464/sw_allocator | Input requests = [ 1 -> [ 15@0 ]  7 -> [ 12@0 ]  14 -> [ 7@0 ]  15 -> [ 0@0 ]  ], output requests = [ 0 -> [ 15@0 ]  7 -> [ 14@0 ]  12 -> [ 7@0 ]  15 -> [ 1@0 ]  ].
29 | network_0/router_level3_464/sw_allocator | Input grants = [ 1 -> 15  7 -> 12  14 -> 7  15 -> 0  ], output grants = [ 0 -> 15  7 -> 14  12 -> 7  15 -> 1  ].
29 | network_0/router_level3_464 | Assigning output 0.0 to VC 0 at input 15.0.
29 | network_0/router_level3_464 | Completed switch allocation for VC 0 at input 15 (front: 10).
29 | network_0/router_level3_464 |   Scheduling switch connection from input 15.0 to output 0.0.
29 | network_0/network_0_fchan_egress960 | Completed channel traversal for flit 1.
29 | network_0/network_0_fchan_egress1152 | Completed channel traversal for flit 2.
29 | network_0/network_0_fchan_egress1984 | Completed channel traversal for flit 3.
29 | network_0/network_0_fchan_egress2176 | Completed channel traversal for flit 4.
29 | network_0/network_0_fchan_egress2560 | Completed channel traversal for flit 5.
29 | network_0/network_0_fchan_egress3008 | Completed channel traversal for flit 6.
29 | network_0/network_0_fchan_egress3456 | Completed channel traversal for flit 8.
29 | network_0/network_0_fchan_19936 | Completed channel traversal for flit 9.
30 | node960 | Ejecting flit 1 (packet 1) from VC 0.
30 | node1152 | Ejecting flit 2 (packet 2) from VC 0.
30 | node1984 | Ejecting flit 3 (packet 3) from VC 0.
30 | node2176 | Ejecting flit 4 (packet 4) from VC 0.
30 | node2560 | Ejecting flit 5 (packet 5) from VC 0.
30 | node3008 | Ejecting flit 6 (packet 6) from VC 0.
30 | node3456 | Ejecting flit 8 (packet 8) from VC 0.
30 | network_0/router_level3_440 | Received flit 9 from channel at input 12.
30 | node960 | Injecting credit for VC 0 into subnet 0.
30 | node960 | Retiring flit 1 (packet 1, src = 15, dest = 960, hops = 7, flat = 30).
30 | node960 | Retiring packet 1 (plat = 30, nlat = 30, frag = 0, src = 15, dest = 960).
30 | node1152 | Injecting credit for VC 0 into subnet 0.
30 | node1152 | Retiring flit 2 (packet 2, src = 18, dest = 1152, hops = 7, flat = 30).
30 | node1152 | Retiring packet 2 (plat = 30, nlat = 30, frag = 0, src = 18, dest = 1152).
30 | node1984 | Injecting credit for VC 0 into subnet 0.
30 | node1984 | Retiring flit 3 (packet 3, src = 31, dest = 1984, hops = 7, flat = 30).
30 | node1984 | Retiring packet 3 (plat = 30, nlat = 30, frag = 0, src = 31, dest = 1984).
30 | node2176 | Injecting credit for VC 0 into subnet 0.
30 | node2176 | Retiring flit 4 (packet 4, src = 34, dest = 2176, hops = 7, flat = 30).
30 | node2176 | Retiring packet 4 (plat = 30, nlat = 30, frag = 0, src = 34, dest = 2176).
30 | node2560 | Injecting credit for VC 0 into subnet 0.
30 | node2560 | Retiring flit 5 (packet 5, src = 40, dest = 2560, hops = 7, flat = 30).
30 | node2560 | Retiring packet 5 (plat = 30, nlat = 30, frag = 0, src = 40, dest = 2560).
30 | node3008 | Injecting credit for VC 0 into subnet 0.
30 | node3008 | Retiring flit 6 (packet 6, src = 47, dest = 3008, hops = 7, flat = 30).
30 | node3008 | Retiring packet 6 (plat = 30, nlat = 30, frag = 0, src = 47, dest = 3008).
30 | node3456 | Injecting credit for VC 0 into subnet 0.
30 | node3456 | Retiring flit 8 (packet 8, src = 54, dest = 3456, hops = 7, flat = 30).
30 | node3456 | Retiring packet 8 (plat = 30, nlat = 30, frag = 0, src = 54, dest = 3456).
30 | network_0/router_level3_424 | Beginning crossbar traversal for flit 7 from input 14.0 to output 0.0.
30 | network_0/router_level3_424 | Completed crossbar traversal for flit 7 from input 14.0 to output 0.0.
30 | network_0/router_level3_424 | Buffering flit 7 at output 0.
30 | network_0/router_level3_440 | Adding flit 9 to VC 0 at input 12 (state: idle, empty).
30 | network_0/router_level3_440 | Using precomputed lookahead routing information for VC 0 at input 12 (front: 9).
30 | network_0/router_level3_440/buf_12/vc_0 | Changing state from idle to vc_alloc.
30 | network_0/router_level3_440 | Beginning VC allocation for VC 0 at input 12 (front: 9).
30 | network_0/router_level3_440 |   Requesting VC 0 at output 0 (in_pri: 0, out_pri: 0).
30 | network_0/router_level3_440 |   Requesting VC 1 at output 0 (in_pri: 0, out_pri: 0).
30 | network_0/router_level3_440 |   Requesting VC 2 at output 0 (in_pri: 0, out_pri: 0).
30 | network_0/router_level3_440 |   Requesting VC 3 at output 0 (in_pri: 0, out_pri: 0).
30 | network_0/router_level3_440/vc_allocator | Input requests = [ 0 -> [ 32@0 33@0 34@0 35@0 ]  11 -> [ 40@0 41@0 42@0 43@0 ]  48 -> [ 0@0 1@0 2@0 3@0 ]  ], output requests = [ 0 -> [ 48@0 ]  1 -> [ 48@0 ]  2 -> [ 48@0 ]  3 -> [ 48@0 ]  32 -> [ 0@0 ]  33 -> [ 0@0 ]  34 -> [ 0@0 ]  35 -> [ 0@0 ]  40 -> [ 11@0 ]  41 -> [ 11@0 ]  42 -> [ 11@0 ]  43 -> [ 11@0 ]  ].
30 | network_0/router_level3_440/vc_allocator | Input grants = [ 0 -> 32  11 -> 40  48 -> 0  ], output grants = [ 0 -> 48  32 -> 0  40 -> 11  ].
30 | network_0/router_level3_440 | Assigning VC 0 at output 0 to VC 0 at input 12.
30 | network_0/router_level3_440 | Completed VC allocation for VC 0 at input 12 (front: 9).
30 | network_0/router_level3_440 |   Acquiring assigned VC 0 at output 0.
30 | network_0/router_level3_440/buf_12/vc_0 | Changing state from vc_alloc to active.
30 | network_0/router_level3_464 | Beginning crossbar traversal for flit 10 from input 15.0 to output 0.0.
30 | network_0/router_level3_464 | Completed crossbar traversal for flit 10 from input 15.0 to output 0.0.
30 | network_0/router_level3_464 | Buffering flit 10 at output 0.
30 | network_0/router_level3_424 | Sending flit 7 to channel at output 0.
30 | network_0/router_level3_464 | Sending flit 10 to channel at output 0.
31 | network_0/network_0_fchan_egress3392 | Beginning channel traversal for flit 7 with delay 1.
31 | network_0/network_0_fchan_egress3712 | Beginning channel traversal for flit 10 with delay 1.
31 | network_0/router_level3_440 | Beginning switch allocation for VC 0 at input 12 (front: 9).
31 | network_0/router_level3_440 |   Requesting output 0.0 (non-spec, pri: 0).
31 | network_0/router_level3_440/sw_allocator | Input requests = [ 0 -> [ 8@0 ]  2 -> [ 10@0 ]  12 -> [ 0@0 ]  ], output requests = [ 0 -> [ 12@0 ]  8 -> [ 0@0 ]  10 -> [ 2@0 ]  ].
31 | network_0/router_level3_440/sw_allocator | Input grants = [ 0 -> 8  2 -> 10  12 -> 0  ], output grants = [ 0 -> 12  8 -> 0  10 -> 2  ].
31 | network_0/router_level3_440 | Assigning output 0.0 to VC 0 at input 12.0.
31 | network_0/router_level3_440 | Completed switch allocation for VC 0 at input 12 (front: 9).
31 | network_0/router_level3_440 |   Scheduling switch connection from input 12.0 to output 0.0.
31 | network_0/network_0_fchan_egress3392 | Completed channel traversal for flit 7.
31 | network_0/network_0_fchan_egress3712 | Completed channel traversal for flit 10.
32 | node3392 | Ejecting flit 7 (packet 7) from VC 1.
32 | node3712 | Ejecting flit 10 (packet 10) from VC 1.
32 | node3392 | Injecting credit for VC 1 into subnet 0.
32 | node3392 | Retiring flit 7 (packet 7, src = 53, dest = 3392, hops = 7, flat = 32).
32 | node3392 | Retiring packet 7 (plat = 32, nlat = 32, frag = 0, src = 53, dest = 3392).
32 | node3712 | Injecting credit for VC 1 into subnet 0.
32 | node3712 | Retiring flit 10 (packet 10, src = 58, dest = 3712, hops = 7, flat = 32).
32 | node3712 | Retiring packet 10 (plat = 32, nlat = 32, frag = 0, src = 58, dest = 3712).
32 | network_0/router_level3_440 | Beginning crossbar traversal for flit 9 from input 12.0 to output 0.0.
32 | network_0/router_level3_440 | Completed crossbar traversal for flit 9 from input 12.0 to output 0.0.
32 | network_0/router_level3_440 | Buffering flit 9 at output 0.
32 | network_0/router_level3_440 | Sending flit 9 to channel at output 0.
33 | network_0/network_0_fchan_egress3520 | Beginning channel traversal for flit 9 with delay 1.
33 | network_0/network_0_fchan_egress3520 | Completed channel traversal for flit 9.
34 | node3520 | Ejecting flit 9 (packet 9) from VC 0.
34 | node3520 | Injecting credit for VC 0 into subnet 0.
34 | node3520 | Retiring flit 9 (packet 9, src = 55, dest = 3520, hops = 7, flat = 34).
34 | node3520 | Retiring packet 9 (plat = 34, nlat = 34, frag = 0, src = 55, dest = 3520).
Class 0:
Packet latency average = 125.388
	minimum = 6
	maximum = 559
Network latency average = 125.388
	minimum = 6
	maximum = 559
Slowest packet = 447702
Flit latency average = 125.388
	minimum = 6
	maximum = 559
Slowest flit = 447702
Fragmentation average = 0
	minimum = 0
	maximum = 0
Injected packet rate average = 0.249846
	minimum = 0.203 (at node 2897)
	maximum = 0.294 (at node 1603)
Accepted packet rate average = 0.191455
	minimum = 0.145 (at node 2035)
	maximum = 0.274 (at node 455)
Injected flit rate average = 0.249846
	minimum = 0.203 (at node 2897)
	maximum = 0.294 (at node 1603)
Accepted flit rate average= 0.191455
	minimum = 0.145 (at node 2035)
	maximum = 0.274 (at node 455)
Injected packet length average = 1
Accepted packet length average = 1
Total in-flight flits = 239168 (0 measured)
latency change    = 1
throughput change = 1
Class 0:
Packet latency average = 230.693
	minimum = 6
	maximum = 975
Network latency average = 230.693
	minimum = 6
	maximum = 975
Slowest packet = 1039767
Flit latency average = 230.693
	minimum = 6
	maximum = 975
Slowest flit = 1039767
Fragmentation average = 0
	minimum = 0
	maximum = 0
Injected packet rate average = 0.249934
	minimum = 0.214 (at node 3875)
	maximum = 0.2825 (at node 1680)
Accepted packet rate average = 0.193894
	minimum = 0.162 (at node 2261)
	maximum = 0.267 (at node 585)
Injected flit rate average = 0.249934
	minimum = 0.214 (at node 3875)
	maximum = 0.2825 (at node 1680)
Accepted flit rate average= 0.193894
	minimum = 0.162 (at node 2261)
	maximum = 0.267 (at node 585)
Injected packet length average = 1
Accepted packet length average = 1
Total in-flight flits = 459082 (0 measured)
latency change    = 0.456471
throughput change = 0.0125789
Class 0:
Packet latency average = 540.374
	minimum = 6
	maximum = 1602
Network latency average = 540.251
	minimum = 6
	maximum = 1602
Slowest packet = 1381766
Flit latency average = 540.251
	minimum = 6
	maximum = 1602
Slowest flit = 1381766
Fragmentation average = 0
	minimum = 0
	maximum = 0
Injected packet rate average = 0.237546
	minimum = 0.111 (at node 1721)
	maximum = 0.295 (at node 3574)
Accepted packet rate average = 0.197585
	minimum = 0.101 (at node 2426)
	maximum = 0.286 (at node 1560)
Injected flit rate average = 0.237546
	minimum = 0.111 (at node 1721)
	maximum = 0.295 (at node 3574)
Accepted flit rate average= 0.197585
	minimum = 0.101 (at node 2426)
	maximum = 0.286 (at node 1560)
Injected packet length average = 1
Accepted packet length average = 1
Total in-flight flits = 624226 (0 measured)
latency change    = 0.573087
throughput change = 0.0186789
Warmed up ...Time used is 3000 cycles
Class 0:
Packet latency average = 589.33
	minimum = 6
	maximum = 1535
Network latency average = 533.4
	minimum = 6
	maximum = 998
Slowest packet = 3025335
Flit latency average = 717.308
	minimum = 6
	maximum = 2053
Slowest flit = 1949542
Fragmentation average = 0
	minimum = 0
	maximum = 0
Injected packet rate average = 0.202172
	minimum = 0.067 (at node 58)
	maximum = 0.296 (at node 1424)
Accepted packet rate average = 0.198055
	minimum = 0.091 (at node 3776)
	maximum = 0.311 (at node 811)
Injected flit rate average = 0.202172
	minimum = 0.067 (at node 58)
	maximum = 0.296 (at node 1424)
Accepted flit rate average= 0.198055
	minimum = 0.091 (at node 3776)
	maximum = 0.311 (at node 811)
Injected packet length average = 1
Accepted packet length average = 1
Total in-flight flits = 642477 (611548 measured)
latency change    = 0.083072
throughput change = 0.00237293
Average latency for class 0 exceeded 500 cycles. Aborting simulation.
Too many sample periods needed to converge
Simulation unstable, ending ...
Total run time 374.909
