BEGIN Configuration File: examples/fattree_config_0.05_1_uniform
// $Id: dragonflyconfig 3555 2011-05-16 23:37:55Z dub $

// Copyright (c) 2007-2015, Trustees of The Leland Stanford Junior University
// All rights reserved.
//
// Redistribution and use in source and binary forms, with or without
// modification, are permitted provided that the following conditions are met:
//
// Redistributions of source code must retain the above copyright notice, this
// list of conditions and the following disclaimer.
// Redistributions in binary form must reproduce the above copyright notice,
// this list of conditions and the following disclaimer in the documentation
// and/or other materials provided with the distribution.
//
// THIS SOFTWARE IS PROVIDED BY THE COPYRIGHT HOLDERS AND CONTRIBUTORS "AS IS"
// AND ANY EXPRESS OR IMPLIED WARRANTIES, INCLUDING, BUT NOT LIMITED TO, THE
// IMPLIED WARRANTIES OF MERCHANTABILITY AND FITNESS FOR A PARTICULAR PURPOSE
// ARE DISCLAIMED. IN NO EVENT SHALL THE COPYRIGHT OWNER OR CONTRIBUTORS BE
// LIABLE FOR ANY DIRECT, INDIRECT, INCIDENTAL, SPECIAL, EXEMPLARY, OR
// CONSEQUENTIAL DAMAGES (INCLUDING, BUT NOT LIMITED TO, PROCUREMENT OF
// SUBSTITUTE GOODS OR SERVICES; LOSS OF USE, DATA, OR PROFITS; OR BUSINESS
// INTERRUPTION) HOWEVER CAUSED AND ON ANY THEORY OF LIABILITY, WHETHER IN
// CONTRACT, STRICT LIABILITY, OR TORT (INCLUDING NEGLIGENCE OR OTHERWISE)
// ARISING IN ANY WAY OUT OF THE USE OF THIS SOFTWARE, EVEN IF ADVISED OF THE
// POSSIBILITY OF SUCH DAMAGE.


hold_switch_for_packet=1;

vc_buf_size = 16;


wait_for_tail_credit = 0;

//
// Router architecture
//
vc_allocator = separable_input_first; 
sw_allocator = separable_input_first;
alloc_iters  = 1;

credit_delay   = 2;
routing_delay  = 0;
vc_alloc_delay = 1;
sw_alloc_delay = 1;
st_final_delay = 1;

input_speedup     = 1;
output_speedup    = 1;
internal_speedup  = 1.0;


warmup_periods = 3;
sim_count          = 1;

sample_period  = 1000;  

routing_function = nca;
num_vcs     = 4;

priority = none;
traffic = uniform;


injection_rate = 0.05;
packet_size = 1;
injection_rate_uses_flits=1;

topology = fattree;

k  = 8;
n  = 4;
t = 1;

watch_file = watchfile.txt;
watch_out=-;
stats_out = examples/fattree_config_0.05_1_uniform.m;

END Configuration File: examples/fattree_config_0.05_1_uniform
Fat Tree
 k = 8 levels = 4
 each switch - total radix =  16
 # of switches = 2048
 # of channels = 24576
 # of nodes ( size of network ) = 4096
 tapering factor = 1
0 | node77 | Enqueuing flit 1 (packet 1) at time 0.
0 | node84 | Enqueuing flit 2 (packet 2) at time 0.
0 | node102 | Enqueuing flit 3 (packet 3) at time 0.
0 | node119 | Enqueuing flit 4 (packet 4) at time 0.
0 | node121 | Enqueuing flit 5 (packet 5) at time 0.
0 | node131 | Enqueuing flit 6 (packet 6) at time 0.
0 | node136 | Enqueuing flit 7 (packet 7) at time 0.
0 | node161 | Enqueuing flit 8 (packet 8) at time 0.
0 | node185 | Enqueuing flit 9 (packet 9) at time 0.
0 | node195 | Enqueuing flit 10 (packet 10) at time 0.
0 | traffic_manager | Finding output VC for flit 1:
0 | traffic_manager |   Selected output VC 0.
0 | node77 | Generating lookahead routing info for flit 1.
0 | node77 | Injecting flit 1 into subnet 0 at time 0 with priority 0.
0 | traffic_manager | Finding output VC for flit 2:
0 | traffic_manager |   Selected output VC 0.
0 | node84 | Generating lookahead routing info for flit 2.
0 | node84 | Injecting flit 2 into subnet 0 at time 0 with priority 0.
0 | traffic_manager | Finding output VC for flit 3:
0 | traffic_manager |   Selected output VC 0.
0 | node102 | Generating lookahead routing info for flit 3.
0 | node102 | Injecting flit 3 into subnet 0 at time 0 with priority 0.
0 | traffic_manager | Finding output VC for flit 4:
0 | traffic_manager |   Selected output VC 0.
0 | node119 | Generating lookahead routing info for flit 4.
0 | node119 | Injecting flit 4 into subnet 0 at time 0 with priority 0.
0 | traffic_manager | Finding output VC for flit 5:
0 | traffic_manager |   Selected output VC 0.
0 | node121 | Generating lookahead routing info for flit 5.
0 | node121 | Injecting flit 5 into subnet 0 at time 0 with priority 0.
0 | traffic_manager | Finding output VC for flit 6:
0 | traffic_manager |   Selected output VC 0.
0 | node131 | Generating lookahead routing info for flit 6.
0 | node131 | Injecting flit 6 into subnet 0 at time 0 with priority 0.
0 | traffic_manager | Finding output VC for flit 7:
0 | traffic_manager |   Selected output VC 0.
0 | node136 | Generating lookahead routing info for flit 7.
0 | node136 | Injecting flit 7 into subnet 0 at time 0 with priority 0.
0 | traffic_manager | Finding output VC for flit 8:
0 | traffic_manager |   Selected output VC 0.
0 | node161 | Generating lookahead routing info for flit 8.
0 | node161 | Injecting flit 8 into subnet 0 at time 0 with priority 0.
0 | traffic_manager | Finding output VC for flit 9:
0 | traffic_manager |   Selected output VC 0.
0 | node185 | Generating lookahead routing info for flit 9.
0 | node185 | Injecting flit 9 into subnet 0 at time 0 with priority 0.
0 | traffic_manager | Finding output VC for flit 10:
0 | traffic_manager |   Selected output VC 0.
0 | node195 | Generating lookahead routing info for flit 10.
0 | node195 | Injecting flit 10 into subnet 0 at time 0 with priority 0.
1 | network_0/network_0_fchan_ingress77 | Beginning channel traversal for flit 1 with delay 1.
1 | network_0/network_0_fchan_ingress84 | Beginning channel traversal for flit 2 with delay 1.
1 | network_0/network_0_fchan_ingress102 | Beginning channel traversal for flit 3 with delay 1.
1 | network_0/network_0_fchan_ingress119 | Beginning channel traversal for flit 4 with delay 1.
1 | network_0/network_0_fchan_ingress121 | Beginning channel traversal for flit 5 with delay 1.
1 | network_0/network_0_fchan_ingress131 | Beginning channel traversal for flit 6 with delay 1.
1 | network_0/network_0_fchan_ingress136 | Beginning channel traversal for flit 7 with delay 1.
1 | network_0/network_0_fchan_ingress161 | Beginning channel traversal for flit 8 with delay 1.
1 | network_0/network_0_fchan_ingress185 | Beginning channel traversal for flit 9 with delay 1.
1 | network_0/network_0_fchan_ingress195 | Beginning channel traversal for flit 10 with delay 1.
1 | network_0/network_0_fchan_ingress77 | Completed channel traversal for flit 1.
1 | network_0/network_0_fchan_ingress84 | Completed channel traversal for flit 2.
1 | network_0/network_0_fchan_ingress102 | Completed channel traversal for flit 3.
1 | network_0/network_0_fchan_ingress119 | Completed channel traversal for flit 4.
1 | network_0/network_0_fchan_ingress121 | Completed channel traversal for flit 5.
1 | network_0/network_0_fchan_ingress131 | Completed channel traversal for flit 6.
1 | network_0/network_0_fchan_ingress136 | Completed channel traversal for flit 7.
1 | network_0/network_0_fchan_ingress161 | Completed channel traversal for flit 8.
1 | network_0/network_0_fchan_ingress185 | Completed channel traversal for flit 9.
1 | network_0/network_0_fchan_ingress195 | Completed channel traversal for flit 10.
2 | network_0/router_level3_9 | Received flit 1 from channel at input 5.
2 | network_0/router_level3_10 | Received flit 2 from channel at input 4.
2 | network_0/router_level3_12 | Received flit 3 from channel at input 6.
2 | network_0/router_level3_14 | Received flit 4 from channel at input 7.
2 | network_0/router_level3_15 | Received flit 5 from channel at input 1.
2 | network_0/router_level3_16 | Received flit 6 from channel at input 3.
2 | network_0/router_level3_17 | Received flit 7 from channel at input 0.
2 | network_0/router_level3_20 | Received flit 8 from channel at input 1.
2 | network_0/router_level3_23 | Received flit 9 from channel at input 1.
2 | network_0/router_level3_24 | Received flit 10 from channel at input 3.
2 | network_0/router_level3_9 | Adding flit 1 to VC 0 at input 5 (state: idle, empty).
2 | network_0/router_level3_9 | Using precomputed lookahead routing information for VC 0 at input 5 (front: 1).
2 | network_0/router_level3_9/buf_5/vc_0 | Changing state from idle to vc_alloc.
2 | network_0/router_level3_9 | Beginning VC allocation for VC 0 at input 5 (front: 1).
2 | network_0/router_level3_9 |   Requesting VC 0 at output 13 (in_pri: 0, out_pri: 0).
2 | network_0/router_level3_9 |   Requesting VC 1 at output 13 (in_pri: 0, out_pri: 0).
2 | network_0/router_level3_9 |   Requesting VC 2 at output 13 (in_pri: 0, out_pri: 0).
2 | network_0/router_level3_9 |   Requesting VC 3 at output 13 (in_pri: 0, out_pri: 0).
2 | network_0/router_level3_9/vc_allocator | Input requests = [ 20 -> [ 52@0 53@0 54@0 55@0 ]  ], output requests = [ 52 -> [ 20@0 ]  53 -> [ 20@0 ]  54 -> [ 20@0 ]  55 -> [ 20@0 ]  ].
2 | network_0/router_level3_9/vc_allocator | Input grants = [ 20 -> 52  ], output grants = [ 52 -> 20  ].
2 | network_0/router_level3_9 | Assigning VC 0 at output 13 to VC 0 at input 5.
2 | network_0/router_level3_9 | Completed VC allocation for VC 0 at input 5 (front: 1).
2 | network_0/router_level3_9 |   Acquiring assigned VC 0 at output 13.
2 | network_0/router_level3_9/buf_5/vc_0 | Changing state from vc_alloc to active.
2 | network_0/router_level3_10 | Adding flit 2 to VC 0 at input 4 (state: idle, empty).
2 | network_0/router_level3_10 | Using precomputed lookahead routing information for VC 0 at input 4 (front: 2).
2 | network_0/router_level3_10/buf_4/vc_0 | Changing state from idle to vc_alloc.
2 | network_0/router_level3_10 | Beginning VC allocation for VC 0 at input 4 (front: 2).
2 | network_0/router_level3_10 |   Requesting VC 0 at output 11 (in_pri: 0, out_pri: 0).
2 | network_0/router_level3_10 |   Requesting VC 1 at output 11 (in_pri: 0, out_pri: 0).
2 | network_0/router_level3_10 |   Requesting VC 2 at output 11 (in_pri: 0, out_pri: 0).
2 | network_0/router_level3_10 |   Requesting VC 3 at output 11 (in_pri: 0, out_pri: 0).
2 | network_0/router_level3_10/vc_allocator | Input requests = [ 16 -> [ 44@0 45@0 46@0 47@0 ]  ], output requests = [ 44 -> [ 16@0 ]  45 -> [ 16@0 ]  46 -> [ 16@0 ]  47 -> [ 16@0 ]  ].
2 | network_0/router_level3_10/vc_allocator | Input grants = [ 16 -> 44  ], output grants = [ 44 -> 16  ].
2 | network_0/router_level3_10 | Assigning VC 0 at output 11 to VC 0 at input 4.
2 | network_0/router_level3_10 | Completed VC allocation for VC 0 at input 4 (front: 2).
2 | network_0/router_level3_10 |   Acquiring assigned VC 0 at output 11.
2 | network_0/router_level3_10/buf_4/vc_0 | Changing state from vc_alloc to active.
2 | network_0/router_level3_12 | Adding flit 3 to VC 0 at input 6 (state: idle, empty).
2 | network_0/router_level3_12 | Using precomputed lookahead routing information for VC 0 at input 6 (front: 3).
2 | network_0/router_level3_12/buf_6/vc_0 | Changing state from idle to vc_alloc.
2 | network_0/router_level3_12 | Beginning VC allocation for VC 0 at input 6 (front: 3).
2 | network_0/router_level3_12 |   Requesting VC 0 at output 8 (in_pri: 0, out_pri: 0).
2 | network_0/router_level3_12 |   Requesting VC 1 at output 8 (in_pri: 0, out_pri: 0).
2 | network_0/router_level3_12 |   Requesting VC 2 at output 8 (in_pri: 0, out_pri: 0).
2 | network_0/router_level3_12 |   Requesting VC 3 at output 8 (in_pri: 0, out_pri: 0).
2 | network_0/router_level3_12/vc_allocator | Input requests = [ 24 -> [ 32@0 33@0 34@0 35@0 ]  ], output requests = [ 32 -> [ 24@0 ]  33 -> [ 24@0 ]  34 -> [ 24@0 ]  35 -> [ 24@0 ]  ].
2 | network_0/router_level3_12/vc_allocator | Input grants = [ 24 -> 32  ], output grants = [ 32 -> 24  ].
2 | network_0/router_level3_12 | Assigning VC 0 at output 8 to VC 0 at input 6.
2 | network_0/router_level3_12 | Completed VC allocation for VC 0 at input 6 (front: 3).
2 | network_0/router_level3_12 |   Acquiring assigned VC 0 at output 8.
2 | network_0/router_level3_12/buf_6/vc_0 | Changing state from vc_alloc to active.
2 | network_0/router_level3_14 | Adding flit 4 to VC 0 at input 7 (state: idle, empty).
2 | network_0/router_level3_14 | Using precomputed lookahead routing information for VC 0 at input 7 (front: 4).
2 | network_0/router_level3_14/buf_7/vc_0 | Changing state from idle to vc_alloc.
2 | network_0/router_level3_14 | Beginning VC allocation for VC 0 at input 7 (front: 4).
2 | network_0/router_level3_14 |   Requesting VC 0 at output 13 (in_pri: 0, out_pri: 0).
2 | network_0/router_level3_14 |   Requesting VC 1 at output 13 (in_pri: 0, out_pri: 0).
2 | network_0/router_level3_14 |   Requesting VC 2 at output 13 (in_pri: 0, out_pri: 0).
2 | network_0/router_level3_14 |   Requesting VC 3 at output 13 (in_pri: 0, out_pri: 0).
2 | network_0/router_level3_14/vc_allocator | Input requests = [ 28 -> [ 52@0 53@0 54@0 55@0 ]  ], output requests = [ 52 -> [ 28@0 ]  53 -> [ 28@0 ]  54 -> [ 28@0 ]  55 -> [ 28@0 ]  ].
2 | network_0/router_level3_14/vc_allocator | Input grants = [ 28 -> 52  ], output grants = [ 52 -> 28  ].
2 | network_0/router_level3_14 | Assigning VC 0 at output 13 to VC 0 at input 7.
2 | network_0/router_level3_14 | Completed VC allocation for VC 0 at input 7 (front: 4).
2 | network_0/router_level3_14 |   Acquiring assigned VC 0 at output 13.
2 | network_0/router_level3_14/buf_7/vc_0 | Changing state from vc_alloc to active.
2 | network_0/router_level3_15 | Adding flit 5 to VC 0 at input 1 (state: idle, empty).
2 | network_0/router_level3_15 | Using precomputed lookahead routing information for VC 0 at input 1 (front: 5).
2 | network_0/router_level3_15/buf_1/vc_0 | Changing state from idle to vc_alloc.
2 | network_0/router_level3_15 | Beginning VC allocation for VC 0 at input 1 (front: 5).
2 | network_0/router_level3_15 |   Requesting VC 0 at output 12 (in_pri: 0, out_pri: 0).
2 | network_0/router_level3_15 |   Requesting VC 1 at output 12 (in_pri: 0, out_pri: 0).
2 | network_0/router_level3_15 |   Requesting VC 2 at output 12 (in_pri: 0, out_pri: 0).
2 | network_0/router_level3_15 |   Requesting VC 3 at output 12 (in_pri: 0, out_pri: 0).
2 | network_0/router_level3_15/vc_allocator | Input requests = [ 4 -> [ 48@0 49@0 50@0 51@0 ]  ], output requests = [ 48 -> [ 4@0 ]  49 -> [ 4@0 ]  50 -> [ 4@0 ]  51 -> [ 4@0 ]  ].
2 | network_0/router_level3_15/vc_allocator | Input grants = [ 4 -> 48  ], output grants = [ 48 -> 4  ].
2 | network_0/router_level3_15 | Assigning VC 0 at output 12 to VC 0 at input 1.
2 | network_0/router_level3_15 | Completed VC allocation for VC 0 at input 1 (front: 5).
2 | network_0/router_level3_15 |   Acquiring assigned VC 0 at output 12.
2 | network_0/router_level3_15/buf_1/vc_0 | Changing state from vc_alloc to active.
2 | network_0/router_level3_16 | Adding flit 6 to VC 0 at input 3 (state: idle, empty).
2 | network_0/router_level3_16 | Using precomputed lookahead routing information for VC 0 at input 3 (front: 6).
2 | network_0/router_level3_16/buf_3/vc_0 | Changing state from idle to vc_alloc.
2 | network_0/router_level3_16 | Beginning VC allocation for VC 0 at input 3 (front: 6).
2 | network_0/router_level3_16 |   Requesting VC 0 at output 11 (in_pri: 0, out_pri: 0).
2 | network_0/router_level3_16 |   Requesting VC 1 at output 11 (in_pri: 0, out_pri: 0).
2 | network_0/router_level3_16 |   Requesting VC 2 at output 11 (in_pri: 0, out_pri: 0).
2 | network_0/router_level3_16 |   Requesting VC 3 at output 11 (in_pri: 0, out_pri: 0).
2 | network_0/router_level3_16/vc_allocator | Input requests = [ 12 -> [ 44@0 45@0 46@0 47@0 ]  ], output requests = [ 44 -> [ 12@0 ]  45 -> [ 12@0 ]  46 -> [ 12@0 ]  47 -> [ 12@0 ]  ].
2 | network_0/router_level3_16/vc_allocator | Input grants = [ 12 -> 44  ], output grants = [ 44 -> 12  ].
2 | network_0/router_level3_16 | Assigning VC 0 at output 11 to VC 0 at input 3.
2 | network_0/router_level3_16 | Completed VC allocation for VC 0 at input 3 (front: 6).
2 | network_0/router_level3_16 |   Acquiring assigned VC 0 at output 11.
2 | network_0/router_level3_16/buf_3/vc_0 | Changing state from vc_alloc to active.
2 | network_0/router_level3_17 | Adding flit 7 to VC 0 at input 0 (state: idle, empty).
2 | network_0/router_level3_17 | Using precomputed lookahead routing information for VC 0 at input 0 (front: 7).
2 | network_0/router_level3_17/buf_0/vc_0 | Changing state from idle to vc_alloc.
2 | network_0/router_level3_17 | Beginning VC allocation for VC 0 at input 0 (front: 7).
2 | network_0/router_level3_17 |   Requesting VC 0 at output 9 (in_pri: 0, out_pri: 0).
2 | network_0/router_level3_17 |   Requesting VC 1 at output 9 (in_pri: 0, out_pri: 0).
2 | network_0/router_level3_17 |   Requesting VC 2 at output 9 (in_pri: 0, out_pri: 0).
2 | network_0/router_level3_17 |   Requesting VC 3 at output 9 (in_pri: 0, out_pri: 0).
2 | network_0/router_level3_17/vc_allocator | Input requests = [ 0 -> [ 36@0 37@0 38@0 39@0 ]  ], output requests = [ 36 -> [ 0@0 ]  37 -> [ 0@0 ]  38 -> [ 0@0 ]  39 -> [ 0@0 ]  ].
2 | network_0/router_level3_17/vc_allocator | Input grants = [ 0 -> 36  ], output grants = [ 36 -> 0  ].
2 | network_0/router_level3_17 | Assigning VC 0 at output 9 to VC 0 at input 0.
2 | network_0/router_level3_17 | Completed VC allocation for VC 0 at input 0 (front: 7).
2 | network_0/router_level3_17 |   Acquiring assigned VC 0 at output 9.
2 | network_0/router_level3_17/buf_0/vc_0 | Changing state from vc_alloc to active.
2 | network_0/router_level3_20 | Adding flit 8 to VC 0 at input 1 (state: idle, empty).
2 | network_0/router_level3_20 | Using precomputed lookahead routing information for VC 0 at input 1 (front: 8).
2 | network_0/router_level3_20/buf_1/vc_0 | Changing state from idle to vc_alloc.
2 | network_0/router_level3_20 | Beginning VC allocation for VC 0 at input 1 (front: 8).
2 | network_0/router_level3_20 |   Requesting VC 0 at output 8 (in_pri: 0, out_pri: 0).
2 | network_0/router_level3_20 |   Requesting VC 1 at output 8 (in_pri: 0, out_pri: 0).
2 | network_0/router_level3_20 |   Requesting VC 2 at output 8 (in_pri: 0, out_pri: 0).
2 | network_0/router_level3_20 |   Requesting VC 3 at output 8 (in_pri: 0, out_pri: 0).
2 | network_0/router_level3_20/vc_allocator | Input requests = [ 4 -> [ 32@0 33@0 34@0 35@0 ]  ], output requests = [ 32 -> [ 4@0 ]  33 -> [ 4@0 ]  34 -> [ 4@0 ]  35 -> [ 4@0 ]  ].
2 | network_0/router_level3_20/vc_allocator | Input grants = [ 4 -> 32  ], output grants = [ 32 -> 4  ].
2 | network_0/router_level3_20 | Assigning VC 0 at output 8 to VC 0 at input 1.
2 | network_0/router_level3_20 | Completed VC allocation for VC 0 at input 1 (front: 8).
2 | network_0/router_level3_20 |   Acquiring assigned VC 0 at output 8.
2 | network_0/router_level3_20/buf_1/vc_0 | Changing state from vc_alloc to active.
2 | network_0/router_level3_23 | Adding flit 9 to VC 0 at input 1 (state: idle, empty).
2 | network_0/router_level3_23 | Using precomputed lookahead routing information for VC 0 at input 1 (front: 9).
2 | network_0/router_level3_23/buf_1/vc_0 | Changing state from idle to vc_alloc.
2 | network_0/router_level3_23 | Beginning VC allocation for VC 0 at input 1 (front: 9).
2 | network_0/router_level3_23 |   Requesting VC 0 at output 10 (in_pri: 0, out_pri: 0).
2 | network_0/router_level3_23 |   Requesting VC 1 at output 10 (in_pri: 0, out_pri: 0).
2 | network_0/router_level3_23 |   Requesting VC 2 at output 10 (in_pri: 0, out_pri: 0).
2 | network_0/router_level3_23 |   Requesting VC 3 at output 10 (in_pri: 0, out_pri: 0).
2 | network_0/router_level3_23/vc_allocator | Input requests = [ 4 -> [ 40@0 41@0 42@0 43@0 ]  ], output requests = [ 40 -> [ 4@0 ]  41 -> [ 4@0 ]  42 -> [ 4@0 ]  43 -> [ 4@0 ]  ].
2 | network_0/router_level3_23/vc_allocator | Input grants = [ 4 -> 40  ], output grants = [ 40 -> 4  ].
2 | network_0/router_level3_23 | Assigning VC 0 at output 10 to VC 0 at input 1.
2 | network_0/router_level3_23 | Completed VC allocation for VC 0 at input 1 (front: 9).
2 | network_0/router_level3_23 |   Acquiring assigned VC 0 at output 10.
2 | network_0/router_level3_23/buf_1/vc_0 | Changing state from vc_alloc to active.
2 | network_0/router_level3_24 | Adding flit 10 to VC 0 at input 3 (state: idle, empty).
2 | network_0/router_level3_24 | Using precomputed lookahead routing information for VC 0 at input 3 (front: 10).
2 | network_0/router_level3_24/buf_3/vc_0 | Changing state from idle to vc_alloc.
2 | network_0/router_level3_24 | Beginning VC allocation for VC 0 at input 3 (front: 10).
2 | network_0/router_level3_24 |   Requesting VC 0 at output 9 (in_pri: 0, out_pri: 0).
2 | network_0/router_level3_24 |   Requesting VC 1 at output 9 (in_pri: 0, out_pri: 0).
2 | network_0/router_level3_24 |   Requesting VC 2 at output 9 (in_pri: 0, out_pri: 0).
2 | network_0/router_level3_24 |   Requesting VC 3 at output 9 (in_pri: 0, out_pri: 0).
2 | network_0/router_level3_24/vc_allocator | Input requests = [ 12 -> [ 36@0 37@0 38@0 39@0 ]  ], output requests = [ 36 -> [ 12@0 ]  37 -> [ 12@0 ]  38 -> [ 12@0 ]  39 -> [ 12@0 ]  ].
2 | network_0/router_level3_24/vc_allocator | Input grants = [ 12 -> 36  ], output grants = [ 36 -> 12  ].
2 | network_0/router_level3_24 | Assigning VC 0 at output 9 to VC 0 at input 3.
2 | network_0/router_level3_24 | Completed VC allocation for VC 0 at input 3 (front: 10).
2 | network_0/router_level3_24 |   Acquiring assigned VC 0 at output 9.
2 | network_0/router_level3_24/buf_3/vc_0 | Changing state from vc_alloc to active.
3 | network_0/router_level3_9 | Beginning switch allocation for VC 0 at input 5 (front: 1).
3 | network_0/router_level3_9 |   Requesting output 13.0 (non-spec, pri: 0).
3 | network_0/router_level3_9/sw_allocator | Input requests = [ 5 -> [ 13@0 ]  ], output requests = [ 13 -> [ 5@0 ]  ].
3 | network_0/router_level3_9/sw_allocator | Input grants = [ 5 -> 13  ], output grants = [ 13 -> 5  ].
3 | network_0/router_level3_9 | Assigning output 13.0 to VC 0 at input 5.0.
3 | network_0/router_level3_9 | Completed switch allocation for VC 0 at input 5 (front: 1).
3 | network_0/router_level3_9 |   Scheduling switch connection from input 5.0 to output 13.0.
3 | network_0/router_level3_9 | Updating lookahead routing information for flit 1.
3 | network_0/router_level3_10 | Beginning switch allocation for VC 0 at input 4 (front: 2).
3 | network_0/router_level3_10 |   Requesting output 11.0 (non-spec, pri: 0).
3 | network_0/router_level3_10/sw_allocator | Input requests = [ 4 -> [ 11@0 ]  ], output requests = [ 11 -> [ 4@0 ]  ].
3 | network_0/router_level3_10/sw_allocator | Input grants = [ 4 -> 11  ], output grants = [ 11 -> 4  ].
3 | network_0/router_level3_10 | Assigning output 11.0 to VC 0 at input 4.0.
3 | network_0/router_level3_10 | Completed switch allocation for VC 0 at input 4 (front: 2).
3 | network_0/router_level3_10 |   Scheduling switch connection from input 4.0 to output 11.0.
3 | network_0/router_level3_10 | Updating lookahead routing information for flit 2.
3 | network_0/router_level3_12 | Beginning switch allocation for VC 0 at input 6 (front: 3).
3 | network_0/router_level3_12 |   Requesting output 8.0 (non-spec, pri: 0).
3 | network_0/router_level3_12/sw_allocator | Input requests = [ 6 -> [ 8@0 ]  ], output requests = [ 8 -> [ 6@0 ]  ].
3 | network_0/router_level3_12/sw_allocator | Input grants = [ 6 -> 8  ], output grants = [ 8 -> 6  ].
3 | network_0/router_level3_12 | Assigning output 8.0 to VC 0 at input 6.0.
3 | network_0/router_level3_12 | Completed switch allocation for VC 0 at input 6 (front: 3).
3 | network_0/router_level3_12 |   Scheduling switch connection from input 6.0 to output 8.0.
3 | network_0/router_level3_12 | Updating lookahead routing information for flit 3.
3 | network_0/router_level3_14 | Beginning switch allocation for VC 0 at input 7 (front: 4).
3 | network_0/router_level3_14 |   Requesting output 13.0 (non-spec, pri: 0).
3 | network_0/router_level3_14/sw_allocator | Input requests = [ 7 -> [ 13@0 ]  ], output requests = [ 13 -> [ 7@0 ]  ].
3 | network_0/router_level3_14/sw_allocator | Input grants = [ 7 -> 13  ], output grants = [ 13 -> 7  ].
3 | network_0/router_level3_14 | Assigning output 13.0 to VC 0 at input 7.0.
3 | network_0/router_level3_14 | Completed switch allocation for VC 0 at input 7 (front: 4).
3 | network_0/router_level3_14 |   Scheduling switch connection from input 7.0 to output 13.0.
3 | network_0/router_level3_14 | Updating lookahead routing information for flit 4.
3 | network_0/router_level3_15 | Beginning switch allocation for VC 0 at input 1 (front: 5).
3 | network_0/router_level3_15 |   Requesting output 12.0 (non-spec, pri: 0).
3 | network_0/router_level3_15/sw_allocator | Input requests = [ 1 -> [ 12@0 ]  ], output requests = [ 12 -> [ 1@0 ]  ].
3 | network_0/router_level3_15/sw_allocator | Input grants = [ 1 -> 12  ], output grants = [ 12 -> 1  ].
3 | network_0/router_level3_15 | Assigning output 12.0 to VC 0 at input 1.0.
3 | network_0/router_level3_15 | Completed switch allocation for VC 0 at input 1 (front: 5).
3 | network_0/router_level3_15 |   Scheduling switch connection from input 1.0 to output 12.0.
3 | network_0/router_level3_15 | Updating lookahead routing information for flit 5.
3 | network_0/router_level3_16 | Beginning switch allocation for VC 0 at input 3 (front: 6).
3 | network_0/router_level3_16 |   Requesting output 11.0 (non-spec, pri: 0).
3 | network_0/router_level3_16/sw_allocator | Input requests = [ 3 -> [ 11@0 ]  ], output requests = [ 11 -> [ 3@0 ]  ].
3 | network_0/router_level3_16/sw_allocator | Input grants = [ 3 -> 11  ], output grants = [ 11 -> 3  ].
3 | network_0/router_level3_16 | Assigning output 11.0 to VC 0 at input 3.0.
3 | network_0/router_level3_16 | Completed switch allocation for VC 0 at input 3 (front: 6).
3 | network_0/router_level3_16 |   Scheduling switch connection from input 3.0 to output 11.0.
3 | network_0/router_level3_16 | Updating lookahead routing information for flit 6.
3 | network_0/router_level3_17 | Beginning switch allocation for VC 0 at input 0 (front: 7).
3 | network_0/router_level3_17 |   Requesting output 9.0 (non-spec, pri: 0).
3 | network_0/router_level3_17/sw_allocator | Input requests = [ 0 -> [ 9@0 ]  ], output requests = [ 9 -> [ 0@0 ]  ].
3 | network_0/router_level3_17/sw_allocator | Input grants = [ 0 -> 9  ], output grants = [ 9 -> 0  ].
3 | network_0/router_level3_17 | Assigning output 9.0 to VC 0 at input 0.0.
3 | network_0/router_level3_17 | Completed switch allocation for VC 0 at input 0 (front: 7).
3 | network_0/router_level3_17 |   Scheduling switch connection from input 0.0 to output 9.0.
3 | network_0/router_level3_17 | Updating lookahead routing information for flit 7.
3 | network_0/router_level3_20 | Beginning switch allocation for VC 0 at input 1 (front: 8).
3 | network_0/router_level3_20 |   Requesting output 8.0 (non-spec, pri: 0).
3 | network_0/router_level3_20/sw_allocator | Input requests = [ 1 -> [ 8@0 ]  ], output requests = [ 8 -> [ 1@0 ]  ].
3 | network_0/router_level3_20/sw_allocator | Input grants = [ 1 -> 8  ], output grants = [ 8 -> 1  ].
3 | network_0/router_level3_20 | Assigning output 8.0 to VC 0 at input 1.0.
3 | network_0/router_level3_20 | Completed switch allocation for VC 0 at input 1 (front: 8).
3 | network_0/router_level3_20 |   Scheduling switch connection from input 1.0 to output 8.0.
3 | network_0/router_level3_20 | Updating lookahead routing information for flit 8.
3 | network_0/router_level3_23 | Beginning switch allocation for VC 0 at input 1 (front: 9).
3 | network_0/router_level3_23 |   Requesting output 10.0 (non-spec, pri: 0).
3 | network_0/router_level3_23/sw_allocator | Input requests = [ 1 -> [ 10@0 ]  ], output requests = [ 10 -> [ 1@0 ]  ].
3 | network_0/router_level3_23/sw_allocator | Input grants = [ 1 -> 10  ], output grants = [ 10 -> 1  ].
3 | network_0/router_level3_23 | Assigning output 10.0 to VC 0 at input 1.0.
3 | network_0/router_level3_23 | Completed switch allocation for VC 0 at input 1 (front: 9).
3 | network_0/router_level3_23 |   Scheduling switch connection from input 1.0 to output 10.0.
3 | network_0/router_level3_23 | Updating lookahead routing information for flit 9.
3 | network_0/router_level3_24 | Beginning switch allocation for VC 0 at input 3 (front: 10).
3 | network_0/router_level3_24 |   Requesting output 9.0 (non-spec, pri: 0).
3 | network_0/router_level3_24/sw_allocator | Input requests = [ 3 -> [ 9@0 ]  ], output requests = [ 9 -> [ 3@0 ]  ].
3 | network_0/router_level3_24/sw_allocator | Input grants = [ 3 -> 9  ], output grants = [ 9 -> 3  ].
3 | network_0/router_level3_24 | Assigning output 9.0 to VC 0 at input 3.0.
3 | network_0/router_level3_24 | Completed switch allocation for VC 0 at input 3 (front: 10).
3 | network_0/router_level3_24 |   Scheduling switch connection from input 3.0 to output 9.0.
3 | network_0/router_level3_24 | Updating lookahead routing information for flit 10.
4 | network_0/router_level3_9 | Beginning crossbar traversal for flit 1 from input 5.0 to output 13.0.
4 | network_0/router_level3_9 | Completed crossbar traversal for flit 1 from input 5.0 to output 13.0.
4 | network_0/router_level3_9 | Buffering flit 1 at output 13.
4 | network_0/router_level3_10 | Beginning crossbar traversal for flit 2 from input 4.0 to output 11.0.
4 | network_0/router_level3_10 | Completed crossbar traversal for flit 2 from input 4.0 to output 11.0.
4 | network_0/router_level3_10 | Buffering flit 2 at output 11.
4 | network_0/router_level3_12 | Beginning crossbar traversal for flit 3 from input 6.0 to output 8.0.
4 | network_0/router_level3_12 | Completed crossbar traversal for flit 3 from input 6.0 to output 8.0.
4 | network_0/router_level3_12 | Buffering flit 3 at output 8.
4 | network_0/router_level3_14 | Beginning crossbar traversal for flit 4 from input 7.0 to output 13.0.
4 | network_0/router_level3_14 | Completed crossbar traversal for flit 4 from input 7.0 to output 13.0.
4 | network_0/router_level3_14 | Buffering flit 4 at output 13.
4 | network_0/router_level3_15 | Beginning crossbar traversal for flit 5 from input 1.0 to output 12.0.
4 | network_0/router_level3_15 | Completed crossbar traversal for flit 5 from input 1.0 to output 12.0.
4 | network_0/router_level3_15 | Buffering flit 5 at output 12.
4 | network_0/router_level3_16 | Beginning crossbar traversal for flit 6 from input 3.0 to output 11.0.
4 | network_0/router_level3_16 | Completed crossbar traversal for flit 6 from input 3.0 to output 11.0.
4 | network_0/router_level3_16 | Buffering flit 6 at output 11.
4 | network_0/router_level3_17 | Beginning crossbar traversal for flit 7 from input 0.0 to output 9.0.
4 | network_0/router_level3_17 | Completed crossbar traversal for flit 7 from input 0.0 to output 9.0.
4 | network_0/router_level3_17 | Buffering flit 7 at output 9.
4 | network_0/router_level3_20 | Beginning crossbar traversal for flit 8 from input 1.0 to output 8.0.
4 | network_0/router_level3_20 | Completed crossbar traversal for flit 8 from input 1.0 to output 8.0.
4 | network_0/router_level3_20 | Buffering flit 8 at output 8.
4 | network_0/router_level3_23 | Beginning crossbar traversal for flit 9 from input 1.0 to output 10.0.
4 | network_0/router_level3_23 | Completed crossbar traversal for flit 9 from input 1.0 to output 10.0.
4 | network_0/router_level3_23 | Buffering flit 9 at output 10.
4 | network_0/router_level3_24 | Beginning crossbar traversal for flit 10 from input 3.0 to output 9.0.
4 | network_0/router_level3_24 | Completed crossbar traversal for flit 10 from input 3.0 to output 9.0.
4 | network_0/router_level3_24 | Buffering flit 10 at output 9.
4 | network_0/router_level3_9 | Sending flit 1 to channel at output 13.
4 | network_0/router_level3_10 | Sending flit 2 to channel at output 11.
4 | network_0/router_level3_12 | Sending flit 3 to channel at output 8.
4 | network_0/router_level3_14 | Sending flit 4 to channel at output 13.
4 | network_0/router_level3_15 | Sending flit 5 to channel at output 12.
4 | network_0/router_level3_16 | Sending flit 6 to channel at output 11.
4 | network_0/router_level3_17 | Sending flit 7 to channel at output 9.
4 | network_0/router_level3_20 | Sending flit 8 to channel at output 8.
4 | network_0/router_level3_23 | Sending flit 9 to channel at output 10.
4 | network_0/router_level3_24 | Sending flit 10 to channel at output 9.
5 | network_0/network_0_fchan_20557 | Beginning channel traversal for flit 1 with delay 1.
5 | network_0/network_0_fchan_20563 | Beginning channel traversal for flit 2 with delay 1.
5 | network_0/network_0_fchan_20576 | Beginning channel traversal for flit 3 with delay 1.
5 | network_0/network_0_fchan_20597 | Beginning channel traversal for flit 4 with delay 1.
5 | network_0/network_0_fchan_20604 | Beginning channel traversal for flit 5 with delay 1.
5 | network_0/network_0_fchan_20611 | Beginning channel traversal for flit 6 with delay 1.
5 | network_0/network_0_fchan_20617 | Beginning channel traversal for flit 7 with delay 1.
5 | network_0/network_0_fchan_20640 | Beginning channel traversal for flit 8 with delay 1.
5 | network_0/network_0_fchan_20666 | Beginning channel traversal for flit 9 with delay 1.
5 | network_0/network_0_fchan_20673 | Beginning channel traversal for flit 10 with delay 1.
5 | network_0/network_0_fchan_20557 | Completed channel traversal for flit 1.
5 | network_0/network_0_fchan_20563 | Completed channel traversal for flit 2.
5 | network_0/network_0_fchan_20576 | Completed channel traversal for flit 3.
5 | network_0/network_0_fchan_20597 | Completed channel traversal for flit 4.
5 | network_0/network_0_fchan_20604 | Completed channel traversal for flit 5.
5 | network_0/network_0_fchan_20611 | Completed channel traversal for flit 6.
5 | network_0/network_0_fchan_20617 | Completed channel traversal for flit 7.
5 | network_0/network_0_fchan_20640 | Completed channel traversal for flit 8.
5 | network_0/network_0_fchan_20666 | Completed channel traversal for flit 9.
5 | network_0/network_0_fchan_20673 | Completed channel traversal for flit 10.
6 | network_0/router_level2_8 | Received flit 3 from channel at input 4.
6 | network_0/router_level2_11 | Received flit 2 from channel at input 2.
6 | network_0/router_level2_12 | Received flit 5 from channel at input 7.
6 | network_0/router_level2_13 | Received flit 1 from channel at input 1.
6 | network_0/router_level2_13 | Received flit 4 from channel at input 6.
6 | network_0/router_level2_16 | Received flit 8 from channel at input 4.
6 | network_0/router_level2_17 | Received flit 7 from channel at input 1.
6 | network_0/router_level2_18 | Received flit 9 from channel at input 7.
6 | network_0/router_level2_19 | Received flit 6 from channel at input 0.
6 | network_0/router_level2_25 | Received flit 10 from channel at input 0.
6 | network_0/router_level2_8 | Adding flit 3 to VC 0 at input 4 (state: idle, empty).
6 | network_0/router_level2_8 | Using precomputed lookahead routing information for VC 0 at input 4 (front: 3).
6 | network_0/router_level2_8/buf_4/vc_0 | Changing state from idle to vc_alloc.
6 | network_0/router_level2_8 | Beginning VC allocation for VC 0 at input 4 (front: 3).
6 | network_0/router_level2_8 |   Requesting VC 0 at output 13 (in_pri: 0, out_pri: 0).
6 | network_0/router_level2_8 |   Requesting VC 1 at output 13 (in_pri: 0, out_pri: 0).
6 | network_0/router_level2_8 |   Requesting VC 2 at output 13 (in_pri: 0, out_pri: 0).
6 | network_0/router_level2_8 |   Requesting VC 3 at output 13 (in_pri: 0, out_pri: 0).
6 | network_0/router_level2_8/vc_allocator | Input requests = [ 16 -> [ 52@0 53@0 54@0 55@0 ]  ], output requests = [ 52 -> [ 16@0 ]  53 -> [ 16@0 ]  54 -> [ 16@0 ]  55 -> [ 16@0 ]  ].
6 | network_0/router_level2_8/vc_allocator | Input grants = [ 16 -> 52  ], output grants = [ 52 -> 16  ].
6 | network_0/router_level2_8 | Assigning VC 0 at output 13 to VC 0 at input 4.
6 | network_0/router_level2_8 | Completed VC allocation for VC 0 at input 4 (front: 3).
6 | network_0/router_level2_8 |   Acquiring assigned VC 0 at output 13.
6 | network_0/router_level2_8/buf_4/vc_0 | Changing state from vc_alloc to active.
6 | network_0/router_level2_11 | Adding flit 2 to VC 0 at input 2 (state: idle, empty).
6 | network_0/router_level2_11 | Using precomputed lookahead routing information for VC 0 at input 2 (front: 2).
6 | network_0/router_level2_11/buf_2/vc_0 | Changing state from idle to vc_alloc.
6 | network_0/router_level2_11 | Beginning VC allocation for VC 0 at input 2 (front: 2).
6 | network_0/router_level2_11 |   Requesting VC 0 at output 10 (in_pri: 0, out_pri: 0).
6 | network_0/router_level2_11 |   Requesting VC 1 at output 10 (in_pri: 0, out_pri: 0).
6 | network_0/router_level2_11 |   Requesting VC 2 at output 10 (in_pri: 0, out_pri: 0).
6 | network_0/router_level2_11 |   Requesting VC 3 at output 10 (in_pri: 0, out_pri: 0).
6 | network_0/router_level2_11/vc_allocator | Input requests = [ 8 -> [ 40@0 41@0 42@0 43@0 ]  ], output requests = [ 40 -> [ 8@0 ]  41 -> [ 8@0 ]  42 -> [ 8@0 ]  43 -> [ 8@0 ]  ].
6 | network_0/router_level2_11/vc_allocator | Input grants = [ 8 -> 40  ], output grants = [ 40 -> 8  ].
6 | network_0/router_level2_11 | Assigning VC 0 at output 10 to VC 0 at input 2.
6 | network_0/router_level2_11 | Completed VC allocation for VC 0 at input 2 (front: 2).
6 | network_0/router_level2_11 |   Acquiring assigned VC 0 at output 10.
6 | network_0/router_level2_11/buf_2/vc_0 | Changing state from vc_alloc to active.
6 | network_0/router_level2_12 | Adding flit 5 to VC 0 at input 7 (state: idle, empty).
6 | network_0/router_level2_12 | Using precomputed lookahead routing information for VC 0 at input 7 (front: 5).
6 | network_0/router_level2_12/buf_7/vc_0 | Changing state from idle to vc_alloc.
6 | network_0/router_level2_12 | Beginning VC allocation for VC 0 at input 7 (front: 5).
6 | network_0/router_level2_12 |   Requesting VC 0 at output 15 (in_pri: 0, out_pri: 0).
6 | network_0/router_level2_12 |   Requesting VC 1 at output 15 (in_pri: 0, out_pri: 0).
6 | network_0/router_level2_12 |   Requesting VC 2 at output 15 (in_pri: 0, out_pri: 0).
6 | network_0/router_level2_12 |   Requesting VC 3 at output 15 (in_pri: 0, out_pri: 0).
6 | network_0/router_level2_12/vc_allocator | Input requests = [ 28 -> [ 60@0 61@0 62@0 63@0 ]  ], output requests = [ 60 -> [ 28@0 ]  61 -> [ 28@0 ]  62 -> [ 28@0 ]  63 -> [ 28@0 ]  ].
6 | network_0/router_level2_12/vc_allocator | Input grants = [ 28 -> 60  ], output grants = [ 60 -> 28  ].
6 | network_0/router_level2_12 | Assigning VC 0 at output 15 to VC 0 at input 7.
6 | network_0/router_level2_12 | Completed VC allocation for VC 0 at input 7 (front: 5).
6 | network_0/router_level2_12 |   Acquiring assigned VC 0 at output 15.
6 | network_0/router_level2_12/buf_7/vc_0 | Changing state from vc_alloc to active.
6 | network_0/router_level2_13 | Adding flit 1 to VC 0 at input 1 (state: idle, empty).
6 | network_0/router_level2_13 | Using precomputed lookahead routing information for VC 0 at input 1 (front: 1).
6 | network_0/router_level2_13/buf_1/vc_0 | Changing state from idle to vc_alloc.
6 | network_0/router_level2_13 | Adding flit 4 to VC 0 at input 6 (state: idle, empty).
6 | network_0/router_level2_13 | Using precomputed lookahead routing information for VC 0 at input 6 (front: 4).
6 | network_0/router_level2_13/buf_6/vc_0 | Changing state from idle to vc_alloc.
6 | network_0/router_level2_13 | Beginning VC allocation for VC 0 at input 1 (front: 1).
6 | network_0/router_level2_13 |   Requesting VC 0 at output 8 (in_pri: 0, out_pri: 0).
6 | network_0/router_level2_13 |   Requesting VC 1 at output 8 (in_pri: 0, out_pri: 0).
6 | network_0/router_level2_13 |   Requesting VC 2 at output 8 (in_pri: 0, out_pri: 0).
6 | network_0/router_level2_13 |   Requesting VC 3 at output 8 (in_pri: 0, out_pri: 0).
6 | network_0/router_level2_13 | Beginning VC allocation for VC 0 at input 6 (front: 4).
6 | network_0/router_level2_13 |   Requesting VC 0 at output 14 (in_pri: 0, out_pri: 0).
6 | network_0/router_level2_13 |   Requesting VC 1 at output 14 (in_pri: 0, out_pri: 0).
6 | network_0/router_level2_13 |   Requesting VC 2 at output 14 (in_pri: 0, out_pri: 0).
6 | network_0/router_level2_13 |   Requesting VC 3 at output 14 (in_pri: 0, out_pri: 0).
6 | network_0/router_level2_13/vc_allocator | Input requests = [ 4 -> [ 32@0 33@0 34@0 35@0 ]  24 -> [ 56@0 57@0 58@0 59@0 ]  ], output requests = [ 32 -> [ 4@0 ]  33 -> [ 4@0 ]  34 -> [ 4@0 ]  35 -> [ 4@0 ]  56 -> [ 24@0 ]  57 -> [ 24@0 ]  58 -> [ 24@0 ]  59 -> [ 24@0 ]  ].
6 | network_0/router_level2_13/vc_allocator | Input grants = [ 4 -> 32  24 -> 56  ], output grants = [ 32 -> 4  56 -> 24  ].
6 | network_0/router_level2_13 | Assigning VC 0 at output 8 to VC 0 at input 1.
6 | network_0/router_level2_13 | Assigning VC 0 at output 14 to VC 0 at input 6.
6 | network_0/router_level2_13 | Completed VC allocation for VC 0 at input 1 (front: 1).
6 | network_0/router_level2_13 |   Acquiring assigned VC 0 at output 8.
6 | network_0/router_level2_13/buf_1/vc_0 | Changing state from vc_alloc to active.
6 | network_0/router_level2_13 | Completed VC allocation for VC 0 at input 6 (front: 4).
6 | network_0/router_level2_13 |   Acquiring assigned VC 0 at output 14.
6 | network_0/router_level2_13/buf_6/vc_0 | Changing state from vc_alloc to active.
6 | network_0/router_level2_16 | Adding flit 8 to VC 0 at input 4 (state: idle, empty).
6 | network_0/router_level2_16 | Using precomputed lookahead routing information for VC 0 at input 4 (front: 8).
6 | network_0/router_level2_16/buf_4/vc_0 | Changing state from idle to vc_alloc.
6 | network_0/router_level2_16 | Beginning VC allocation for VC 0 at input 4 (front: 8).
6 | network_0/router_level2_16 |   Requesting VC 0 at output 15 (in_pri: 0, out_pri: 0).
6 | network_0/router_level2_16 |   Requesting VC 1 at output 15 (in_pri: 0, out_pri: 0).
6 | network_0/router_level2_16 |   Requesting VC 2 at output 15 (in_pri: 0, out_pri: 0).
6 | network_0/router_level2_16 |   Requesting VC 3 at output 15 (in_pri: 0, out_pri: 0).
6 | network_0/router_level2_16/vc_allocator | Input requests = [ 16 -> [ 60@0 61@0 62@0 63@0 ]  ], output requests = [ 60 -> [ 16@0 ]  61 -> [ 16@0 ]  62 -> [ 16@0 ]  63 -> [ 16@0 ]  ].
6 | network_0/router_level2_16/vc_allocator | Input grants = [ 16 -> 60  ], output grants = [ 60 -> 16  ].
6 | network_0/router_level2_16 | Assigning VC 0 at output 15 to VC 0 at input 4.
6 | network_0/router_level2_16 | Completed VC allocation for VC 0 at input 4 (front: 8).
6 | network_0/router_level2_16 |   Acquiring assigned VC 0 at output 15.
6 | network_0/router_level2_16/buf_4/vc_0 | Changing state from vc_alloc to active.
6 | network_0/router_level2_17 | Adding flit 7 to VC 0 at input 1 (state: idle, empty).
6 | network_0/router_level2_17 | Using precomputed lookahead routing information for VC 0 at input 1 (front: 7).
6 | network_0/router_level2_17/buf_1/vc_0 | Changing state from idle to vc_alloc.
6 | network_0/router_level2_17 | Beginning VC allocation for VC 0 at input 1 (front: 7).
6 | network_0/router_level2_17 |   Requesting VC 0 at output 8 (in_pri: 0, out_pri: 0).
6 | network_0/router_level2_17 |   Requesting VC 1 at output 8 (in_pri: 0, out_pri: 0).
6 | network_0/router_level2_17 |   Requesting VC 2 at output 8 (in_pri: 0, out_pri: 0).
6 | network_0/router_level2_17 |   Requesting VC 3 at output 8 (in_pri: 0, out_pri: 0).
6 | network_0/router_level2_17/vc_allocator | Input requests = [ 4 -> [ 32@0 33@0 34@0 35@0 ]  ], output requests = [ 32 -> [ 4@0 ]  33 -> [ 4@0 ]  34 -> [ 4@0 ]  35 -> [ 4@0 ]  ].
6 | network_0/router_level2_17/vc_allocator | Input grants = [ 4 -> 32  ], output grants = [ 32 -> 4  ].
6 | network_0/router_level2_17 | Assigning VC 0 at output 8 to VC 0 at input 1.
6 | network_0/router_level2_17 | Completed VC allocation for VC 0 at input 1 (front: 7).
6 | network_0/router_level2_17 |   Acquiring assigned VC 0 at output 8.
6 | network_0/router_level2_17/buf_1/vc_0 | Changing state from vc_alloc to active.
6 | network_0/router_level2_18 | Adding flit 9 to VC 0 at input 7 (state: idle, empty).
6 | network_0/router_level2_18 | Using precomputed lookahead routing information for VC 0 at input 7 (front: 9).
6 | network_0/router_level2_18/buf_7/vc_0 | Changing state from idle to vc_alloc.
6 | network_0/router_level2_18 | Beginning VC allocation for VC 0 at input 7 (front: 9).
6 | network_0/router_level2_18 |   Requesting VC 0 at output 11 (in_pri: 0, out_pri: 0).
6 | network_0/router_level2_18 |   Requesting VC 1 at output 11 (in_pri: 0, out_pri: 0).
6 | network_0/router_level2_18 |   Requesting VC 2 at output 11 (in_pri: 0, out_pri: 0).
6 | network_0/router_level2_18 |   Requesting VC 3 at output 11 (in_pri: 0, out_pri: 0).
6 | network_0/router_level2_18/vc_allocator | Input requests = [ 28 -> [ 44@0 45@0 46@0 47@0 ]  ], output requests = [ 44 -> [ 28@0 ]  45 -> [ 28@0 ]  46 -> [ 28@0 ]  47 -> [ 28@0 ]  ].
6 | network_0/router_level2_18/vc_allocator | Input grants = [ 28 -> 44  ], output grants = [ 44 -> 28  ].
6 | network_0/router_level2_18 | Assigning VC 0 at output 11 to VC 0 at input 7.
6 | network_0/router_level2_18 | Completed VC allocation for VC 0 at input 7 (front: 9).
6 | network_0/router_level2_18 |   Acquiring assigned VC 0 at output 11.
6 | network_0/router_level2_18/buf_7/vc_0 | Changing state from vc_alloc to active.
6 | network_0/router_level2_19 | Adding flit 6 to VC 0 at input 0 (state: idle, empty).
6 | network_0/router_level2_19 | Using precomputed lookahead routing information for VC 0 at input 0 (front: 6).
6 | network_0/router_level2_19/buf_0/vc_0 | Changing state from idle to vc_alloc.
6 | network_0/router_level2_19 | Beginning VC allocation for VC 0 at input 0 (front: 6).
6 | network_0/router_level2_19 |   Requesting VC 0 at output 15 (in_pri: 0, out_pri: 0).
6 | network_0/router_level2_19 |   Requesting VC 1 at output 15 (in_pri: 0, out_pri: 0).
6 | network_0/router_level2_19 |   Requesting VC 2 at output 15 (in_pri: 0, out_pri: 0).
6 | network_0/router_level2_19 |   Requesting VC 3 at output 15 (in_pri: 0, out_pri: 0).
6 | network_0/router_level2_19/vc_allocator | Input requests = [ 0 -> [ 60@0 61@0 62@0 63@0 ]  ], output requests = [ 60 -> [ 0@0 ]  61 -> [ 0@0 ]  62 -> [ 0@0 ]  63 -> [ 0@0 ]  ].
6 | network_0/router_level2_19/vc_allocator | Input grants = [ 0 -> 60  ], output grants = [ 60 -> 0  ].
6 | network_0/router_level2_19 | Assigning VC 0 at output 15 to VC 0 at input 0.
6 | network_0/router_level2_19 | Completed VC allocation for VC 0 at input 0 (front: 6).
6 | network_0/router_level2_19 |   Acquiring assigned VC 0 at output 15.
6 | network_0/router_level2_19/buf_0/vc_0 | Changing state from vc_alloc to active.
6 | network_0/router_level2_25 | Adding flit 10 to VC 0 at input 0 (state: idle, empty).
6 | network_0/router_level2_25 | Using precomputed lookahead routing information for VC 0 at input 0 (front: 10).
6 | network_0/router_level2_25/buf_0/vc_0 | Changing state from idle to vc_alloc.
6 | network_0/router_level2_25 | Beginning VC allocation for VC 0 at input 0 (front: 10).
6 | network_0/router_level2_25 |   Requesting VC 0 at output 14 (in_pri: 0, out_pri: 0).
6 | network_0/router_level2_25 |   Requesting VC 1 at output 14 (in_pri: 0, out_pri: 0).
6 | network_0/router_level2_25 |   Requesting VC 2 at output 14 (in_pri: 0, out_pri: 0).
6 | network_0/router_level2_25 |   Requesting VC 3 at output 14 (in_pri: 0, out_pri: 0).
6 | network_0/router_level2_25/vc_allocator | Input requests = [ 0 -> [ 56@0 57@0 58@0 59@0 ]  ], output requests = [ 56 -> [ 0@0 ]  57 -> [ 0@0 ]  58 -> [ 0@0 ]  59 -> [ 0@0 ]  ].
6 | network_0/router_level2_25/vc_allocator | Input grants = [ 0 -> 56  ], output grants = [ 56 -> 0  ].
6 | network_0/router_level2_25 | Assigning VC 0 at output 14 to VC 0 at input 0.
6 | network_0/router_level2_25 | Completed VC allocation for VC 0 at input 0 (front: 10).
6 | network_0/router_level2_25 |   Acquiring assigned VC 0 at output 14.
6 | network_0/router_level2_25/buf_0/vc_0 | Changing state from vc_alloc to active.
7 | network_0/router_level2_8 | Beginning switch allocation for VC 0 at input 4 (front: 3).
7 | network_0/router_level2_8 |   Requesting output 13.0 (non-spec, pri: 0).
7 | network_0/router_level2_8/sw_allocator | Input requests = [ 4 -> [ 13@0 ]  ], output requests = [ 13 -> [ 4@0 ]  ].
7 | network_0/router_level2_8/sw_allocator | Input grants = [ 4 -> 13  ], output grants = [ 13 -> 4  ].
7 | network_0/router_level2_8 | Assigning output 13.0 to VC 0 at input 4.0.
7 | network_0/router_level2_8 | Completed switch allocation for VC 0 at input 4 (front: 3).
7 | network_0/router_level2_8 |   Scheduling switch connection from input 4.0 to output 13.0.
7 | network_0/router_level2_8 | Updating lookahead routing information for flit 3.
7 | network_0/router_level2_11 | Beginning switch allocation for VC 0 at input 2 (front: 2).
7 | network_0/router_level2_11 |   Requesting output 10.0 (non-spec, pri: 0).
7 | network_0/router_level2_11/sw_allocator | Input requests = [ 2 -> [ 10@0 ]  ], output requests = [ 10 -> [ 2@0 ]  ].
7 | network_0/router_level2_11/sw_allocator | Input grants = [ 2 -> 10  ], output grants = [ 10 -> 2  ].
7 | network_0/router_level2_11 | Assigning output 10.0 to VC 0 at input 2.0.
7 | network_0/router_level2_11 | Completed switch allocation for VC 0 at input 2 (front: 2).
7 | network_0/router_level2_11 |   Scheduling switch connection from input 2.0 to output 10.0.
7 | network_0/router_level2_11 | Updating lookahead routing information for flit 2.
7 | network_0/router_level2_12 | Beginning switch allocation for VC 0 at input 7 (front: 5).
7 | network_0/router_level2_12 |   Requesting output 15.0 (non-spec, pri: 0).
7 | network_0/router_level2_12/sw_allocator | Input requests = [ 7 -> [ 15@0 ]  ], output requests = [ 15 -> [ 7@0 ]  ].
7 | network_0/router_level2_12/sw_allocator | Input grants = [ 7 -> 15  ], output grants = [ 15 -> 7  ].
7 | network_0/router_level2_12 | Assigning output 15.0 to VC 0 at input 7.0.
7 | network_0/router_level2_12 | Completed switch allocation for VC 0 at input 7 (front: 5).
7 | network_0/router_level2_12 |   Scheduling switch connection from input 7.0 to output 15.0.
7 | network_0/router_level2_12 | Updating lookahead routing information for flit 5.
7 | network_0/router_level2_13 | Beginning switch allocation for VC 0 at input 1 (front: 1).
7 | network_0/router_level2_13 |   Requesting output 8.0 (non-spec, pri: 0).
7 | network_0/router_level2_13 | Beginning switch allocation for VC 0 at input 6 (front: 4).
7 | network_0/router_level2_13 |   Requesting output 14.0 (non-spec, pri: 0).
7 | network_0/router_level2_13/sw_allocator | Input requests = [ 1 -> [ 8@0 ]  6 -> [ 14@0 ]  ], output requests = [ 8 -> [ 1@0 ]  14 -> [ 6@0 ]  ].
7 | network_0/router_level2_13/sw_allocator | Input grants = [ 1 -> 8  6 -> 14  ], output grants = [ 8 -> 1  14 -> 6  ].
7 | network_0/router_level2_13 | Assigning output 8.0 to VC 0 at input 1.0.
7 | network_0/router_level2_13 | Assigning output 14.0 to VC 0 at input 6.0.
7 | network_0/router_level2_13 | Completed switch allocation for VC 0 at input 1 (front: 1).
7 | network_0/router_level2_13 |   Scheduling switch connection from input 1.0 to output 8.0.
7 | network_0/router_level2_13 | Updating lookahead routing information for flit 1.
7 | network_0/router_level2_13 | Completed switch allocation for VC 0 at input 6 (front: 4).
7 | network_0/router_level2_13 |   Scheduling switch connection from input 6.0 to output 14.0.
7 | network_0/router_level2_13 | Updating lookahead routing information for flit 4.
7 | network_0/router_level2_16 | Beginning switch allocation for VC 0 at input 4 (front: 8).
7 | network_0/router_level2_16 |   Requesting output 15.0 (non-spec, pri: 0).
7 | network_0/router_level2_16/sw_allocator | Input requests = [ 4 -> [ 15@0 ]  ], output requests = [ 15 -> [ 4@0 ]  ].
7 | network_0/router_level2_16/sw_allocator | Input grants = [ 4 -> 15  ], output grants = [ 15 -> 4  ].
7 | network_0/router_level2_16 | Assigning output 15.0 to VC 0 at input 4.0.
7 | network_0/router_level2_16 | Completed switch allocation for VC 0 at input 4 (front: 8).
7 | network_0/router_level2_16 |   Scheduling switch connection from input 4.0 to output 15.0.
7 | network_0/router_level2_16 | Updating lookahead routing information for flit 8.
7 | network_0/router_level2_17 | Beginning switch allocation for VC 0 at input 1 (front: 7).
7 | network_0/router_level2_17 |   Requesting output 8.0 (non-spec, pri: 0).
7 | network_0/router_level2_17/sw_allocator | Input requests = [ 1 -> [ 8@0 ]  ], output requests = [ 8 -> [ 1@0 ]  ].
7 | network_0/router_level2_17/sw_allocator | Input grants = [ 1 -> 8  ], output grants = [ 8 -> 1  ].
7 | network_0/router_level2_17 | Assigning output 8.0 to VC 0 at input 1.0.
7 | network_0/router_level2_17 | Completed switch allocation for VC 0 at input 1 (front: 7).
7 | network_0/router_level2_17 |   Scheduling switch connection from input 1.0 to output 8.0.
7 | network_0/router_level2_17 | Updating lookahead routing information for flit 7.
7 | network_0/router_level2_18 | Beginning switch allocation for VC 0 at input 7 (front: 9).
7 | network_0/router_level2_18 |   Requesting output 11.0 (non-spec, pri: 0).
7 | network_0/router_level2_18/sw_allocator | Input requests = [ 7 -> [ 11@0 ]  ], output requests = [ 11 -> [ 7@0 ]  ].
7 | network_0/router_level2_18/sw_allocator | Input grants = [ 7 -> 11  ], output grants = [ 11 -> 7  ].
7 | network_0/router_level2_18 | Assigning output 11.0 to VC 0 at input 7.0.
7 | network_0/router_level2_18 | Completed switch allocation for VC 0 at input 7 (front: 9).
7 | network_0/router_level2_18 |   Scheduling switch connection from input 7.0 to output 11.0.
7 | network_0/router_level2_18 | Updating lookahead routing information for flit 9.
7 | network_0/router_level2_19 | Beginning switch allocation for VC 0 at input 0 (front: 6).
7 | network_0/router_level2_19 |   Requesting output 15.0 (non-spec, pri: 0).
7 | network_0/router_level2_19/sw_allocator | Input requests = [ 0 -> [ 15@0 ]  ], output requests = [ 15 -> [ 0@0 ]  ].
7 | network_0/router_level2_19/sw_allocator | Input grants = [ 0 -> 15  ], output grants = [ 15 -> 0  ].
7 | network_0/router_level2_19 | Assigning output 15.0 to VC 0 at input 0.0.
7 | network_0/router_level2_19 | Completed switch allocation for VC 0 at input 0 (front: 6).
7 | network_0/router_level2_19 |   Scheduling switch connection from input 0.0 to output 15.0.
7 | network_0/router_level2_19 | Updating lookahead routing information for flit 6.
7 | network_0/router_level2_25 | Beginning switch allocation for VC 0 at input 0 (front: 10).
7 | network_0/router_level2_25 |   Requesting output 14.0 (non-spec, pri: 0).
7 | network_0/router_level2_25/sw_allocator | Input requests = [ 0 -> [ 14@0 ]  ], output requests = [ 14 -> [ 0@0 ]  ].
7 | network_0/router_level2_25/sw_allocator | Input grants = [ 0 -> 14  ], output grants = [ 14 -> 0  ].
7 | network_0/router_level2_25 | Assigning output 14.0 to VC 0 at input 0.0.
7 | network_0/router_level2_25 | Completed switch allocation for VC 0 at input 0 (front: 10).
7 | network_0/router_level2_25 |   Scheduling switch connection from input 0.0 to output 14.0.
7 | network_0/router_level2_25 | Updating lookahead routing information for flit 10.
8 | network_0/router_level2_8 | Beginning crossbar traversal for flit 3 from input 4.0 to output 13.0.
8 | network_0/router_level2_8 | Completed crossbar traversal for flit 3 from input 4.0 to output 13.0.
8 | network_0/router_level2_8 | Buffering flit 3 at output 13.
8 | network_0/router_level2_11 | Beginning crossbar traversal for flit 2 from input 2.0 to output 10.0.
8 | network_0/router_level2_11 | Completed crossbar traversal for flit 2 from input 2.0 to output 10.0.
8 | network_0/router_level2_11 | Buffering flit 2 at output 10.
8 | network_0/router_level2_12 | Beginning crossbar traversal for flit 5 from input 7.0 to output 15.0.
8 | network_0/router_level2_12 | Completed crossbar traversal for flit 5 from input 7.0 to output 15.0.
8 | network_0/router_level2_12 | Buffering flit 5 at output 15.
8 | network_0/router_level2_13 | Beginning crossbar traversal for flit 1 from input 1.0 to output 8.0.
8 | network_0/router_level2_13 | Beginning crossbar traversal for flit 4 from input 6.0 to output 14.0.
8 | network_0/router_level2_13 | Completed crossbar traversal for flit 1 from input 1.0 to output 8.0.
8 | network_0/router_level2_13 | Buffering flit 1 at output 8.
8 | network_0/router_level2_13 | Completed crossbar traversal for flit 4 from input 6.0 to output 14.0.
8 | network_0/router_level2_13 | Buffering flit 4 at output 14.
8 | network_0/router_level2_16 | Beginning crossbar traversal for flit 8 from input 4.0 to output 15.0.
8 | network_0/router_level2_16 | Completed crossbar traversal for flit 8 from input 4.0 to output 15.0.
8 | network_0/router_level2_16 | Buffering flit 8 at output 15.
8 | network_0/router_level2_17 | Beginning crossbar traversal for flit 7 from input 1.0 to output 8.0.
8 | network_0/router_level2_17 | Completed crossbar traversal for flit 7 from input 1.0 to output 8.0.
8 | network_0/router_level2_17 | Buffering flit 7 at output 8.
8 | network_0/router_level2_18 | Beginning crossbar traversal for flit 9 from input 7.0 to output 11.0.
8 | network_0/router_level2_18 | Completed crossbar traversal for flit 9 from input 7.0 to output 11.0.
8 | network_0/router_level2_18 | Buffering flit 9 at output 11.
8 | network_0/router_level2_19 | Beginning crossbar traversal for flit 6 from input 0.0 to output 15.0.
8 | network_0/router_level2_19 | Completed crossbar traversal for flit 6 from input 0.0 to output 15.0.
8 | network_0/router_level2_19 | Buffering flit 6 at output 15.
8 | network_0/router_level2_25 | Beginning crossbar traversal for flit 10 from input 0.0 to output 14.0.
8 | network_0/router_level2_25 | Completed crossbar traversal for flit 10 from input 0.0 to output 14.0.
8 | network_0/router_level2_25 | Buffering flit 10 at output 14.
8 | network_0/router_level2_8 | Sending flit 3 to channel at output 13.
8 | network_0/router_level2_11 | Sending flit 2 to channel at output 10.
8 | network_0/router_level2_12 | Sending flit 5 to channel at output 15.
8 | network_0/router_level2_13 | Sending flit 1 to channel at output 8.
8 | network_0/router_level2_13 | Sending flit 4 to channel at output 14.
8 | network_0/router_level2_16 | Sending flit 8 to channel at output 15.
8 | network_0/router_level2_17 | Sending flit 7 to channel at output 8.
8 | network_0/router_level2_18 | Sending flit 9 to channel at output 11.
8 | network_0/router_level2_19 | Sending flit 6 to channel at output 15.
8 | network_0/router_level2_25 | Sending flit 10 to channel at output 14.
9 | network_0/network_0_fchan_12357 | Beginning channel traversal for flit 3 with delay 1.
9 | network_0/network_0_fchan_12378 | Beginning channel traversal for flit 2 with delay 1.
9 | network_0/network_0_fchan_12391 | Beginning channel traversal for flit 5 with delay 1.
9 | network_0/network_0_fchan_12392 | Beginning channel traversal for flit 1 with delay 1.
9 | network_0/network_0_fchan_12398 | Beginning channel traversal for flit 4 with delay 1.
9 | network_0/network_0_fchan_12423 | Beginning channel traversal for flit 8 with delay 1.
9 | network_0/network_0_fchan_12424 | Beginning channel traversal for flit 7 with delay 1.
9 | network_0/network_0_fchan_12435 | Beginning channel traversal for flit 9 with delay 1.
9 | network_0/network_0_fchan_12447 | Beginning channel traversal for flit 6 with delay 1.
9 | network_0/network_0_fchan_12494 | Beginning channel traversal for flit 10 with delay 1.
9 | network_0/network_0_fchan_12357 | Completed channel traversal for flit 3.
9 | network_0/network_0_fchan_12378 | Completed channel traversal for flit 2.
9 | network_0/network_0_fchan_12391 | Completed channel traversal for flit 5.
9 | network_0/network_0_fchan_12392 | Completed channel traversal for flit 1.
9 | network_0/network_0_fchan_12398 | Completed channel traversal for flit 4.
9 | network_0/network_0_fchan_12423 | Completed channel traversal for flit 8.
9 | network_0/network_0_fchan_12424 | Completed channel traversal for flit 7.
9 | network_0/network_0_fchan_12435 | Completed channel traversal for flit 9.
9 | network_0/network_0_fchan_12447 | Completed channel traversal for flit 6.
9 | network_0/network_0_fchan_12494 | Completed channel traversal for flit 10.
10 | network_0/router_level1_1 | Received flit 7 from channel at input 2.
10 | network_0/router_level1_5 | Received flit 1 from channel at input 1.
10 | network_0/router_level1_19 | Received flit 2 from channel at input 1.
10 | network_0/router_level1_26 | Received flit 9 from channel at input 2.
10 | network_0/router_level1_40 | Received flit 3 from channel at input 1.
10 | network_0/router_level1_49 | Received flit 10 from channel at input 3.
10 | network_0/router_level1_53 | Received flit 4 from channel at input 1.
10 | network_0/router_level1_56 | Received flit 8 from channel at input 2.
10 | network_0/router_level1_59 | Received flit 6 from channel at input 2.
10 | network_0/router_level1_60 | Received flit 5 from channel at input 1.
10 | network_0/router_level1_1 | Adding flit 7 to VC 0 at input 2 (state: idle, empty).
10 | network_0/router_level1_1 | Using precomputed lookahead routing information for VC 0 at input 2 (front: 7).
10 | network_0/router_level1_1/buf_2/vc_0 | Changing state from idle to vc_alloc.
10 | network_0/router_level1_1 | Beginning VC allocation for VC 0 at input 2 (front: 7).
10 | network_0/router_level1_1 |   Requesting VC 0 at output 15 (in_pri: 0, out_pri: 0).
10 | network_0/router_level1_1 |   Requesting VC 1 at output 15 (in_pri: 0, out_pri: 0).
10 | network_0/router_level1_1 |   Requesting VC 2 at output 15 (in_pri: 0, out_pri: 0).
10 | network_0/router_level1_1 |   Requesting VC 3 at output 15 (in_pri: 0, out_pri: 0).
10 | network_0/router_level1_1/vc_allocator | Input requests = [ 8 -> [ 60@0 61@0 62@0 63@0 ]  ], output requests = [ 60 -> [ 8@0 ]  61 -> [ 8@0 ]  62 -> [ 8@0 ]  63 -> [ 8@0 ]  ].
10 | network_0/router_level1_1/vc_allocator | Input grants = [ 8 -> 60  ], output grants = [ 60 -> 8  ].
10 | network_0/router_level1_1 | Assigning VC 0 at output 15 to VC 0 at input 2.
10 | network_0/router_level1_1 | Completed VC allocation for VC 0 at input 2 (front: 7).
10 | network_0/router_level1_1 |   Acquiring assigned VC 0 at output 15.
10 | network_0/router_level1_1/buf_2/vc_0 | Changing state from vc_alloc to active.
10 | network_0/router_level1_5 | Adding flit 1 to VC 0 at input 1 (state: idle, empty).
10 | network_0/router_level1_5 | Using precomputed lookahead routing information for VC 0 at input 1 (front: 1).
10 | network_0/router_level1_5/buf_1/vc_0 | Changing state from idle to vc_alloc.
10 | network_0/router_level1_5 | Beginning VC allocation for VC 0 at input 1 (front: 1).
10 | network_0/router_level1_5 |   Requesting VC 0 at output 11 (in_pri: 0, out_pri: 0).
10 | network_0/router_level1_5 |   Requesting VC 1 at output 11 (in_pri: 0, out_pri: 0).
10 | network_0/router_level1_5 |   Requesting VC 2 at output 11 (in_pri: 0, out_pri: 0).
10 | network_0/router_level1_5 |   Requesting VC 3 at output 11 (in_pri: 0, out_pri: 0).
10 | network_0/router_level1_5/vc_allocator | Input requests = [ 4 -> [ 44@0 45@0 46@0 47@0 ]  24 -> [ 60@0 61@0 62@0 63@0 ]  28 -> [ 40@0 41@0 42@0 43@0 ]  ], output requests = [ 40 -> [ 28@0 ]  41 -> [ 28@0 ]  42 -> [ 28@0 ]  43 -> [ 28@0 ]  44 -> [ 4@0 ]  45 -> [ 4@0 ]  46 -> [ 4@0 ]  47 -> [ 4@0 ]  60 -> [ 24@0 ]  61 -> [ 24@0 ]  62 -> [ 24@0 ]  63 -> [ 24@0 ]  ].
10 | network_0/router_level1_5/vc_allocator | Input grants = [ 4 -> 44  24 -> 60  28 -> 40  ], output grants = [ 40 -> 28  44 -> 4  60 -> 24  ].
10 | network_0/router_level1_5 | Assigning VC 0 at output 11 to VC 0 at input 1.
10 | network_0/router_level1_5 | Completed VC allocation for VC 0 at input 1 (front: 1).
10 | network_0/router_level1_5 |   Acquiring assigned VC 0 at output 11.
10 | network_0/router_level1_5/buf_1/vc_0 | Changing state from vc_alloc to active.
10 | network_0/router_level1_19 | Adding flit 2 to VC 0 at input 1 (state: idle, empty).
10 | network_0/router_level1_19 | Using precomputed lookahead routing information for VC 0 at input 1 (front: 2).
10 | network_0/router_level1_19/buf_1/vc_0 | Changing state from idle to vc_alloc.
10 | network_0/router_level1_19 | Beginning VC allocation for VC 0 at input 1 (front: 2).
10 | network_0/router_level1_19 |   Requesting VC 0 at output 14 (in_pri: 0, out_pri: 0).
10 | network_0/router_level1_19 |   Requesting VC 1 at output 14 (in_pri: 0, out_pri: 0).
10 | network_0/router_level1_19 |   Requesting VC 2 at output 14 (in_pri: 0, out_pri: 0).
10 | network_0/router_level1_19 |   Requesting VC 3 at output 14 (in_pri: 0, out_pri: 0).
10 | network_0/router_level1_19/vc_allocator | Input requests = [ 4 -> [ 56@0 57@0 58@0 59@0 ]  16 -> [ 36@0 37@0 38@0 39@0 ]  ], output requests = [ 36 -> [ 16@0 ]  37 -> [ 16@0 ]  38 -> [ 16@0 ]  39 -> [ 16@0 ]  56 -> [ 4@0 ]  57 -> [ 4@0 ]  58 -> [ 4@0 ]  59 -> [ 4@0 ]  ].
10 | network_0/router_level1_19/vc_allocator | Input grants = [ 4 -> 56  16 -> 36  ], output grants = [ 36 -> 16  56 -> 4  ].
10 | network_0/router_level1_19 | Assigning VC 0 at output 14 to VC 0 at input 1.
10 | network_0/router_level1_19 | Completed VC allocation for VC 0 at input 1 (front: 2).
10 | network_0/router_level1_19 |   Acquiring assigned VC 0 at output 14.
10 | network_0/router_level1_19/buf_1/vc_0 | Changing state from vc_alloc to active.
10 | network_0/router_level1_26 | Adding flit 9 to VC 0 at input 2 (state: idle, empty).
10 | network_0/router_level1_26 | Using precomputed lookahead routing information for VC 0 at input 2 (front: 9).
10 | network_0/router_level1_26/buf_2/vc_0 | Changing state from idle to vc_alloc.
10 | network_0/router_level1_26 | Beginning VC allocation for VC 0 at input 2 (front: 9).
10 | network_0/router_level1_26 |   Requesting VC 0 at output 7 (in_pri: 0, out_pri: 0).
10 | network_0/router_level1_26 |   Requesting VC 1 at output 7 (in_pri: 0, out_pri: 0).
10 | network_0/router_level1_26 |   Requesting VC 2 at output 7 (in_pri: 0, out_pri: 0).
10 | network_0/router_level1_26 |   Requesting VC 3 at output 7 (in_pri: 0, out_pri: 0).
10 | network_0/router_level1_26/vc_allocator | Input requests = [ 8 -> [ 28@0 29@0 30@0 31@0 ]  20 -> [ 56@0 57@0 58@0 59@0 ]  ], output requests = [ 28 -> [ 8@0 ]  29 -> [ 8@0 ]  30 -> [ 8@0 ]  31 -> [ 8@0 ]  56 -> [ 20@0 ]  57 -> [ 20@0 ]  58 -> [ 20@0 ]  59 -> [ 20@0 ]  ].
10 | network_0/router_level1_26/vc_allocator | Input grants = [ 8 -> 28  20 -> 56  ], output grants = [ 28 -> 8  56 -> 20  ].
10 | network_0/router_level1_26 | Assigning VC 0 at output 7 to VC 0 at input 2.
10 | network_0/router_level1_26 | Completed VC allocation for VC 0 at input 2 (front: 9).
10 | network_0/router_level1_26 |   Acquiring assigned VC 0 at output 7.
10 | network_0/router_level1_26/buf_2/vc_0 | Changing state from vc_alloc to active.
10 | network_0/router_level1_40 | Adding flit 3 to VC 0 at input 1 (state: idle, empty).
10 | network_0/router_level1_40 | Using precomputed lookahead routing information for VC 0 at input 1 (front: 3).
10 | network_0/router_level1_40/buf_1/vc_0 | Changing state from idle to vc_alloc.
10 | network_0/router_level1_40 | Beginning VC allocation for VC 0 at input 1 (front: 3).
10 | network_0/router_level1_40 |   Requesting VC 0 at output 12 (in_pri: 0, out_pri: 0).
10 | network_0/router_level1_40 |   Requesting VC 1 at output 12 (in_pri: 0, out_pri: 0).
10 | network_0/router_level1_40 |   Requesting VC 2 at output 12 (in_pri: 0, out_pri: 0).
10 | network_0/router_level1_40 |   Requesting VC 3 at output 12 (in_pri: 0, out_pri: 0).
10 | network_0/router_level1_40/vc_allocator | Input requests = [ 4 -> [ 48@0 49@0 50@0 51@0 ]  ], output requests = [ 48 -> [ 4@0 ]  49 -> [ 4@0 ]  50 -> [ 4@0 ]  51 -> [ 4@0 ]  ].
10 | network_0/router_level1_40/vc_allocator | Input grants = [ 4 -> 48  ], output grants = [ 48 -> 4  ].
10 | network_0/router_level1_40 | Assigning VC 0 at output 12 to VC 0 at input 1.
10 | network_0/router_level1_40 | Completed VC allocation for VC 0 at input 1 (front: 3).
10 | network_0/router_level1_40 |   Acquiring assigned VC 0 at output 12.
10 | network_0/router_level1_40/buf_1/vc_0 | Changing state from vc_alloc to active.
10 | network_0/router_level1_49 | Adding flit 10 to VC 0 at input 3 (state: idle, empty).
10 | network_0/router_level1_49 | Using precomputed lookahead routing information for VC 0 at input 3 (front: 10).
10 | network_0/router_level1_49/buf_3/vc_0 | Changing state from idle to vc_alloc.
10 | network_0/router_level1_49 | Beginning VC allocation for VC 0 at input 3 (front: 10).
10 | network_0/router_level1_49 |   Requesting VC 0 at output 9 (in_pri: 0, out_pri: 0).
10 | network_0/router_level1_49 |   Requesting VC 1 at output 9 (in_pri: 0, out_pri: 0).
10 | network_0/router_level1_49 |   Requesting VC 2 at output 9 (in_pri: 0, out_pri: 0).
10 | network_0/router_level1_49 |   Requesting VC 3 at output 9 (in_pri: 0, out_pri: 0).
10 | network_0/router_level1_49/vc_allocator | Input requests = [ 12 -> [ 36@0 37@0 38@0 39@0 ]  ], output requests = [ 36 -> [ 12@0 ]  37 -> [ 12@0 ]  38 -> [ 12@0 ]  39 -> [ 12@0 ]  ].
10 | network_0/router_level1_49/vc_allocator | Input grants = [ 12 -> 36  ], output grants = [ 36 -> 12  ].
10 | network_0/router_level1_49 | Assigning VC 0 at output 9 to VC 0 at input 3.
10 | network_0/router_level1_49 | Completed VC allocation for VC 0 at input 3 (front: 10).
10 | network_0/router_level1_49 |   Acquiring assigned VC 0 at output 9.
10 | network_0/router_level1_49/buf_3/vc_0 | Changing state from vc_alloc to active.
10 | network_0/router_level1_53 | Adding flit 4 to VC 0 at input 1 (state: idle, empty).
10 | network_0/router_level1_53 | Using precomputed lookahead routing information for VC 0 at input 1 (front: 4).
10 | network_0/router_level1_53/buf_1/vc_0 | Changing state from idle to vc_alloc.
10 | network_0/router_level1_53 | Beginning VC allocation for VC 0 at input 1 (front: 4).
10 | network_0/router_level1_53 |   Requesting VC 0 at output 14 (in_pri: 0, out_pri: 0).
10 | network_0/router_level1_53 |   Requesting VC 1 at output 14 (in_pri: 0, out_pri: 0).
10 | network_0/router_level1_53 |   Requesting VC 2 at output 14 (in_pri: 0, out_pri: 0).
10 | network_0/router_level1_53 |   Requesting VC 3 at output 14 (in_pri: 0, out_pri: 0).
10 | network_0/router_level1_53/vc_allocator | Input requests = [ 4 -> [ 56@0 57@0 58@0 59@0 ]  24 -> [ 60@0 61@0 62@0 63@0 ]  ], output requests = [ 56 -> [ 4@0 ]  57 -> [ 4@0 ]  58 -> [ 4@0 ]  59 -> [ 4@0 ]  60 -> [ 24@0 ]  61 -> [ 24@0 ]  62 -> [ 24@0 ]  63 -> [ 24@0 ]  ].
10 | network_0/router_level1_53/vc_allocator | Input grants = [ 4 -> 56  24 -> 60  ], output grants = [ 56 -> 4  60 -> 24  ].
10 | network_0/router_level1_53 | Assigning VC 0 at output 14 to VC 0 at input 1.
10 | network_0/router_level1_53 | Completed VC allocation for VC 0 at input 1 (front: 4).
10 | network_0/router_level1_53 |   Acquiring assigned VC 0 at output 14.
10 | network_0/router_level1_53/buf_1/vc_0 | Changing state from vc_alloc to active.
10 | network_0/router_level1_56 | Adding flit 8 to VC 0 at input 2 (state: idle, empty).
10 | network_0/router_level1_56 | Using precomputed lookahead routing information for VC 0 at input 2 (front: 8).
10 | network_0/router_level1_56/buf_2/vc_0 | Changing state from idle to vc_alloc.
10 | network_0/router_level1_56 | Beginning VC allocation for VC 0 at input 2 (front: 8).
10 | network_0/router_level1_56 |   Requesting VC 0 at output 14 (in_pri: 0, out_pri: 0).
10 | network_0/router_level1_56 |   Requesting VC 1 at output 14 (in_pri: 0, out_pri: 0).
10 | network_0/router_level1_56 |   Requesting VC 2 at output 14 (in_pri: 0, out_pri: 0).
10 | network_0/router_level1_56 |   Requesting VC 3 at output 14 (in_pri: 0, out_pri: 0).
10 | network_0/router_level1_56/vc_allocator | Input requests = [ 8 -> [ 56@0 57@0 58@0 59@0 ]  ], output requests = [ 56 -> [ 8@0 ]  57 -> [ 8@0 ]  58 -> [ 8@0 ]  59 -> [ 8@0 ]  ].
10 | network_0/router_level1_56/vc_allocator | Input grants = [ 8 -> 56  ], output grants = [ 56 -> 8  ].
10 | network_0/router_level1_56 | Assigning VC 0 at output 14 to VC 0 at input 2.
10 | network_0/router_level1_56 | Completed VC allocation for VC 0 at input 2 (front: 8).
10 | network_0/router_level1_56 |   Acquiring assigned VC 0 at output 14.
10 | network_0/router_level1_56/buf_2/vc_0 | Changing state from vc_alloc to active.
10 | network_0/router_level1_59 | Adding flit 6 to VC 0 at input 2 (state: idle, empty).
10 | network_0/router_level1_59 | Using precomputed lookahead routing information for VC 0 at input 2 (front: 6).
10 | network_0/router_level1_59/buf_2/vc_0 | Changing state from idle to vc_alloc.
10 | network_0/router_level1_59 | Beginning VC allocation for VC 0 at input 2 (front: 6).
10 | network_0/router_level1_59 |   Requesting VC 0 at output 12 (in_pri: 0, out_pri: 0).
10 | network_0/router_level1_59 |   Requesting VC 1 at output 12 (in_pri: 0, out_pri: 0).
10 | network_0/router_level1_59 |   Requesting VC 2 at output 12 (in_pri: 0, out_pri: 0).
10 | network_0/router_level1_59 |   Requesting VC 3 at output 12 (in_pri: 0, out_pri: 0).
10 | network_0/router_level1_59/vc_allocator | Input requests = [ 8 -> [ 48@0 49@0 50@0 51@0 ]  ], output requests = [ 48 -> [ 8@0 ]  49 -> [ 8@0 ]  50 -> [ 8@0 ]  51 -> [ 8@0 ]  ].
10 | network_0/router_level1_59/vc_allocator | Input grants = [ 8 -> 48  ], output grants = [ 48 -> 8  ].
10 | network_0/router_level1_59 | Assigning VC 0 at output 12 to VC 0 at input 2.
10 | network_0/router_level1_59 | Completed VC allocation for VC 0 at input 2 (front: 6).
10 | network_0/router_level1_59 |   Acquiring assigned VC 0 at output 12.
10 | network_0/router_level1_59/buf_2/vc_0 | Changing state from vc_alloc to active.
10 | network_0/router_level1_60 | Adding flit 5 to VC 0 at input 1 (state: idle, empty).
10 | network_0/router_level1_60 | Using precomputed lookahead routing information for VC 0 at input 1 (front: 5).
10 | network_0/router_level1_60/buf_1/vc_0 | Changing state from idle to vc_alloc.
10 | network_0/router_level1_60 | Beginning VC allocation for VC 0 at input 1 (front: 5).
10 | network_0/router_level1_60 |   Requesting VC 0 at output 15 (in_pri: 0, out_pri: 0).
10 | network_0/router_level1_60 |   Requesting VC 1 at output 15 (in_pri: 0, out_pri: 0).
10 | network_0/router_level1_60 |   Requesting VC 2 at output 15 (in_pri: 0, out_pri: 0).
10 | network_0/router_level1_60 |   Requesting VC 3 at output 15 (in_pri: 0, out_pri: 0).
10 | network_0/router_level1_60/vc_allocator | Input requests = [ 4 -> [ 60@0 61@0 62@0 63@0 ]  12 -> [ 44@0 45@0 46@0 47@0 ]  ], output requests = [ 44 -> [ 12@0 ]  45 -> [ 12@0 ]  46 -> [ 12@0 ]  47 -> [ 12@0 ]  60 -> [ 4@0 ]  61 -> [ 4@0 ]  62 -> [ 4@0 ]  63 -> [ 4@0 ]  ].
10 | network_0/router_level1_60/vc_allocator | Input grants = [ 4 -> 60  12 -> 44  ], output grants = [ 44 -> 12  60 -> 4  ].
10 | network_0/router_level1_60 | Assigning VC 0 at output 15 to VC 0 at input 1.
10 | network_0/router_level1_60 | Completed VC allocation for VC 0 at input 1 (front: 5).
10 | network_0/router_level1_60 |   Acquiring assigned VC 0 at output 15.
10 | network_0/router_level1_60/buf_1/vc_0 | Changing state from vc_alloc to active.
11 | network_0/router_level1_1 | Beginning switch allocation for VC 0 at input 2 (front: 7).
11 | network_0/router_level1_1 |   Requesting output 15.0 (non-spec, pri: 0).
11 | network_0/router_level1_1/sw_allocator | Input requests = [ 2 -> [ 15@0 ]  ], output requests = [ 15 -> [ 2@0 ]  ].
11 | network_0/router_level1_1/sw_allocator | Input grants = [ 2 -> 15  ], output grants = [ 15 -> 2  ].
11 | network_0/router_level1_1 | Assigning output 15.0 to VC 0 at input 2.0.
11 | network_0/router_level1_1 | Completed switch allocation for VC 0 at input 2 (front: 7).
11 | network_0/router_level1_1 |   Scheduling switch connection from input 2.0 to output 15.0.
11 | network_0/router_level1_1 | Updating lookahead routing information for flit 7.
11 | network_0/router_level1_5 | Beginning switch allocation for VC 0 at input 1 (front: 1).
11 | network_0/router_level1_5 |   Requesting output 11.0 (non-spec, pri: 0).
11 | network_0/router_level1_5/sw_allocator | Input requests = [ 1 -> [ 11@0 ]  6 -> [ 15@0 ]  7 -> [ 10@0 ]  ], output requests = [ 10 -> [ 7@0 ]  11 -> [ 1@0 ]  15 -> [ 6@0 ]  ].
11 | network_0/router_level1_5/sw_allocator | Input grants = [ 1 -> 11  6 -> 15  7 -> 10  ], output grants = [ 10 -> 7  11 -> 1  15 -> 6  ].
11 | network_0/router_level1_5 | Assigning output 11.0 to VC 0 at input 1.0.
11 | network_0/router_level1_5 | Completed switch allocation for VC 0 at input 1 (front: 1).
11 | network_0/router_level1_5 |   Scheduling switch connection from input 1.0 to output 11.0.
11 | network_0/router_level1_5 | Updating lookahead routing information for flit 1.
11 | network_0/router_level1_19 | Beginning switch allocation for VC 0 at input 1 (front: 2).
11 | network_0/router_level1_19 |   Requesting output 14.0 (non-spec, pri: 0).
11 | network_0/router_level1_19/sw_allocator | Input requests = [ 1 -> [ 14@0 ]  4 -> [ 9@0 ]  ], output requests = [ 9 -> [ 4@0 ]  14 -> [ 1@0 ]  ].
11 | network_0/router_level1_19/sw_allocator | Input grants = [ 1 -> 14  4 -> 9  ], output grants = [ 9 -> 4  14 -> 1  ].
11 | network_0/router_level1_19 | Assigning output 14.0 to VC 0 at input 1.0.
11 | network_0/router_level1_19 | Completed switch allocation for VC 0 at input 1 (front: 2).
11 | network_0/router_level1_19 |   Scheduling switch connection from input 1.0 to output 14.0.
11 | network_0/router_level1_19 | Updating lookahead routing information for flit 2.
11 | network_0/router_level1_26 | Beginning switch allocation for VC 0 at input 2 (front: 9).
11 | network_0/router_level1_26 |   Requesting output 7.0 (non-spec, pri: 0).
11 | network_0/router_level1_26/sw_allocator | Input requests = [ 2 -> [ 7@0 ]  5 -> [ 14@0 ]  ], output requests = [ 7 -> [ 2@0 ]  14 -> [ 5@0 ]  ].
11 | network_0/router_level1_26/sw_allocator | Input grants = [ 2 -> 7  5 -> 14  ], output grants = [ 7 -> 2  14 -> 5  ].
11 | network_0/router_level1_26 | Assigning output 7.0 to VC 0 at input 2.0.
11 | network_0/router_level1_26 | Completed switch allocation for VC 0 at input 2 (front: 9).
11 | network_0/router_level1_26 |   Scheduling switch connection from input 2.0 to output 7.0.
11 | network_0/router_level1_26 | Updating lookahead routing information for flit 9.
11 | network_0/router_level1_40 | Beginning switch allocation for VC 0 at input 1 (front: 3).
11 | network_0/router_level1_40 |   Requesting output 12.0 (non-spec, pri: 0).
11 | network_0/router_level1_40/sw_allocator | Input requests = [ 1 -> [ 12@0 ]  ], output requests = [ 12 -> [ 1@0 ]  ].
11 | network_0/router_level1_40/sw_allocator | Input grants = [ 1 -> 12  ], output grants = [ 12 -> 1  ].
11 | network_0/router_level1_40 | Assigning output 12.0 to VC 0 at input 1.0.
11 | network_0/router_level1_40 | Completed switch allocation for VC 0 at input 1 (front: 3).
11 | network_0/router_level1_40 |   Scheduling switch connection from input 1.0 to output 12.0.
11 | network_0/router_level1_40 | Updating lookahead routing information for flit 3.
11 | network_0/router_level1_49 | Beginning switch allocation for VC 0 at input 3 (front: 10).
11 | network_0/router_level1_49 |   Requesting output 9.0 (non-spec, pri: 0).
11 | network_0/router_level1_49/sw_allocator | Input requests = [ 3 -> [ 9@0 ]  ], output requests = [ 9 -> [ 3@0 ]  ].
11 | network_0/router_level1_49/sw_allocator | Input grants = [ 3 -> 9  ], output grants = [ 9 -> 3  ].
11 | network_0/router_level1_49 | Assigning output 9.0 to VC 0 at input 3.0.
11 | network_0/router_level1_49 | Completed switch allocation for VC 0 at input 3 (front: 10).
11 | network_0/router_level1_49 |   Scheduling switch connection from input 3.0 to output 9.0.
11 | network_0/router_level1_49 | Updating lookahead routing information for flit 10.
11 | network_0/router_level1_53 | Beginning switch allocation for VC 0 at input 1 (front: 4).
[...]
27 | network_0/router_level3_129 | Assigning output 6.0 to VC 0 at input 9.0.
27 | network_0/router_level3_129 | Completed switch allocation for VC 0 at input 9 (front: 10).
27 | network_0/router_level3_129 |   Scheduling switch connection from input 9.0 to output 6.0.
27 | network_0/router_level3_151 | Beginning switch allocation for VC 0 at input 8 (front: 3).
27 | network_0/router_level3_151 |   Requesting output 1.0 (non-spec, pri: 0).
27 | network_0/router_level3_151/sw_allocator | Input requests = [ 0 -> [ 14@0 ]  4 -> [ 12@0 ]  8 -> [ 1@0 ]  9 -> [ 0@0 ]  15 -> [ 4@0 ]  ], output requests = [ 0 -> [ 9@0 ]  1 -> [ 8@0 ]  4 -> [ 15@0 ]  12 -> [ 4@0 ]  14 -> [ 0@0 ]  ].
27 | network_0/router_level3_151/sw_allocator | Input grants = [ 0 -> 14  4 -> 12  8 -> 1  9 -> 0  15 -> 4  ], output grants = [ 0 -> 9  1 -> 8  4 -> 15  12 -> 4  14 -> 0  ].
27 | network_0/router_level3_151 | Assigning output 1.0 to VC 0 at input 8.0.
27 | network_0/router_level3_151 | Completed switch allocation for VC 0 at input 8 (front: 3).
27 | network_0/router_level3_151 |   Scheduling switch connection from input 8.0 to output 1.0.
27 | network_0/router_level3_171 | Beginning switch allocation for VC 0 at input 11 (front: 6).
27 | network_0/router_level3_171 |   Requesting output 2.0 (non-spec, pri: 0).
27 | network_0/router_level3_171/sw_allocator | Input requests = [ 11 -> [ 2@0 ]  ], output requests = [ 2 -> [ 11@0 ]  ].
27 | network_0/router_level3_171/sw_allocator | Input grants = [ 11 -> 2  ], output grants = [ 2 -> 11  ].
27 | network_0/router_level3_171 | Assigning output 2.0 to VC 0 at input 11.0.
27 | network_0/router_level3_171 | Completed switch allocation for VC 0 at input 11 (front: 6).
27 | network_0/router_level3_171 |   Scheduling switch connection from input 11.0 to output 2.0.
27 | network_0/router_level3_222 | Beginning switch allocation for VC 0 at input 11 (front: 2).
27 | network_0/router_level3_222 |   Requesting output 3.0 (non-spec, pri: 0).
27 | network_0/router_level3_222/sw_allocator | Input requests = [ 2 -> [ 10@0 ]  4 -> [ 15@0 ]  11 -> [ 3@0 ]  ], output requests = [ 3 -> [ 11@0 ]  10 -> [ 2@0 ]  15 -> [ 4@0 ]  ].
27 | network_0/router_level3_222/sw_allocator | Input grants = [ 2 -> 10  4 -> 15  11 -> 3  ], output grants = [ 3 -> 11  10 -> 2  15 -> 4  ].
27 | network_0/router_level3_222 | Assigning output 3.0 to VC 0 at input 11.0.
27 | network_0/router_level3_222 | Completed switch allocation for VC 0 at input 11 (front: 2).
27 | network_0/router_level3_222 |   Scheduling switch connection from input 11.0 to output 3.0.
27 | network_0/router_level3_224 | Beginning switch allocation for VC 0 at input 8 (front: 8).
27 | network_0/router_level3_224 |   Requesting output 3.0 (non-spec, pri: 0).
27 | network_0/router_level3_224/sw_allocator | Input requests = [ 8 -> [ 3@0 ]  13 -> [ 0@0 ]  ], output requests = [ 0 -> [ 13@0 ]  3 -> [ 8@0 ]  ].
27 | network_0/router_level3_224/sw_allocator | Input grants = [ 8 -> 3  13 -> 0  ], output grants = [ 0 -> 13  3 -> 8  ].
27 | network_0/router_level3_224 | Assigning output 3.0 to VC 0 at input 8.0.
27 | network_0/router_level3_224 | Completed switch allocation for VC 0 at input 8 (front: 8).
27 | network_0/router_level3_224 |   Scheduling switch connection from input 8.0 to output 3.0.
27 | network_0/router_level3_226 | Beginning switch allocation for VC 0 at input 9 (front: 7).
27 | network_0/router_level3_226 |   Requesting output 2.0 (non-spec, pri: 0).
27 | network_0/router_level3_226/sw_allocator | Input requests = [ 9 -> [ 2@0 ]  10 -> [ 5@0 ]  ], output requests = [ 2 -> [ 9@0 ]  5 -> [ 10@0 ]  ].
27 | network_0/router_level3_226/sw_allocator | Input grants = [ 9 -> 2  10 -> 5  ], output grants = [ 2 -> 9  5 -> 10  ].
27 | network_0/router_level3_226 | Assigning output 2.0 to VC 0 at input 9.0.
27 | network_0/router_level3_226 | Completed switch allocation for VC 0 at input 9 (front: 7).
27 | network_0/router_level3_226 |   Scheduling switch connection from input 9.0 to output 2.0.
27 | network_0/router_level3_247 | Beginning switch allocation for VC 0 at input 13 (front: 1).
27 | network_0/router_level3_247 |   Requesting output 2.0 (non-spec, pri: 0).
27 | network_0/router_level3_247/sw_allocator | Input requests = [ 13 -> [ 2@0 ]  ], output requests = [ 2 -> [ 13@0 ]  ].
27 | network_0/router_level3_247/sw_allocator | Input grants = [ 13 -> 2  ], output grants = [ 2 -> 13  ].
27 | network_0/router_level3_247 | Assigning output 2.0 to VC 0 at input 13.0.
27 | network_0/router_level3_247 | Completed switch allocation for VC 0 at input 13 (front: 1).
27 | network_0/router_level3_247 |   Scheduling switch connection from input 13.0 to output 2.0.
27 | network_0/router_level3_305 | Beginning switch allocation for VC 0 at input 13 (front: 4).
27 | network_0/router_level3_305 |   Requesting output 0.0 (non-spec, pri: 0).
27 | network_0/router_level3_305/sw_allocator | Input requests = [ 13 -> [ 0@0 ]  ], output requests = [ 0 -> [ 13@0 ]  ].
27 | network_0/router_level3_305/sw_allocator | Input grants = [ 13 -> 0  ], output grants = [ 0 -> 13  ].
27 | network_0/router_level3_305 | Assigning output 0.0 to VC 0 at input 13.0.
27 | network_0/router_level3_305 | Completed switch allocation for VC 0 at input 13 (front: 4).
27 | network_0/router_level3_305 |   Scheduling switch connection from input 13.0 to output 0.0.
27 | network_0/router_level3_485 | Beginning switch allocation for VC 0 at input 12 (front: 5).
27 | network_0/router_level3_485 |   Requesting output 6.0 (non-spec, pri: 0).
27 | network_0/router_level3_485/sw_allocator | Input requests = [ 7 -> [ 11@0 ]  12 -> [ 6@0 ]  ], output requests = [ 6 -> [ 12@0 ]  11 -> [ 7@0 ]  ].
27 | network_0/router_level3_485/sw_allocator | Input grants = [ 7 -> 11  12 -> 6  ], output grants = [ 6 -> 12  11 -> 7  ].
27 | network_0/router_level3_485 | Assigning output 6.0 to VC 0 at input 12.0.
27 | network_0/router_level3_485 | Completed switch allocation for VC 0 at input 12 (front: 5).
27 | network_0/router_level3_485 |   Scheduling switch connection from input 12.0 to output 6.0.
28 | network_0/router_level3_129 | Beginning crossbar traversal for flit 10 from input 9.0 to output 6.0.
28 | network_0/router_level3_129 | Completed crossbar traversal for flit 10 from input 9.0 to output 6.0.
28 | network_0/router_level3_129 | Buffering flit 10 at output 6.
28 | network_0/router_level3_151 | Beginning crossbar traversal for flit 3 from input 8.0 to output 1.0.
28 | network_0/router_level3_151 | Completed crossbar traversal for flit 3 from input 8.0 to output 1.0.
28 | network_0/router_level3_151 | Buffering flit 3 at output 1.
28 | network_0/router_level3_171 | Beginning crossbar traversal for flit 6 from input 11.0 to output 2.0.
28 | network_0/router_level3_171 | Completed crossbar traversal for flit 6 from input 11.0 to output 2.0.
28 | network_0/router_level3_171 | Buffering flit 6 at output 2.
28 | network_0/router_level3_222 | Beginning crossbar traversal for flit 2 from input 11.0 to output 3.0.
28 | network_0/router_level3_222 | Completed crossbar traversal for flit 2 from input 11.0 to output 3.0.
28 | network_0/router_level3_222 | Buffering flit 2 at output 3.
28 | network_0/router_level3_224 | Beginning crossbar traversal for flit 8 from input 8.0 to output 3.0.
28 | network_0/router_level3_224 | Completed crossbar traversal for flit 8 from input 8.0 to output 3.0.
28 | network_0/router_level3_224 | Buffering flit 8 at output 3.
28 | network_0/router_level3_226 | Beginning crossbar traversal for flit 7 from input 9.0 to output 2.0.
28 | network_0/router_level3_226 | Completed crossbar traversal for flit 7 from input 9.0 to output 2.0.
28 | network_0/router_level3_226 | Buffering flit 7 at output 2.
28 | network_0/router_level3_247 | Beginning crossbar traversal for flit 1 from input 13.0 to output 2.0.
28 | network_0/router_level3_247 | Completed crossbar traversal for flit 1 from input 13.0 to output 2.0.
28 | network_0/router_level3_247 | Buffering flit 1 at output 2.
28 | network_0/router_level3_305 | Beginning crossbar traversal for flit 4 from input 13.0 to output 0.0.
28 | network_0/router_level3_305 | Completed crossbar traversal for flit 4 from input 13.0 to output 0.0.
28 | network_0/router_level3_305 | Buffering flit 4 at output 0.
28 | network_0/router_level3_485 | Beginning crossbar traversal for flit 5 from input 12.0 to output 6.0.
28 | network_0/router_level3_485 | Completed crossbar traversal for flit 5 from input 12.0 to output 6.0.
28 | network_0/router_level3_485 | Buffering flit 5 at output 6.
28 | network_0/router_level3_129 | Sending flit 10 to channel at output 6.
28 | network_0/router_level3_151 | Sending flit 3 to channel at output 1.
28 | network_0/router_level3_171 | Sending flit 6 to channel at output 2.
28 | network_0/router_level3_222 | Sending flit 2 to channel at output 3.
28 | network_0/router_level3_224 | Sending flit 8 to channel at output 3.
28 | network_0/router_level3_226 | Sending flit 7 to channel at output 2.
28 | network_0/router_level3_247 | Sending flit 1 to channel at output 2.
28 | network_0/router_level3_305 | Sending flit 4 to channel at output 0.
28 | network_0/router_level3_485 | Sending flit 5 to channel at output 6.
29 | network_0/network_0_fchan_egress1038 | Beginning channel traversal for flit 10 with delay 1.
29 | network_0/network_0_fchan_egress1209 | Beginning channel traversal for flit 3 with delay 1.
29 | network_0/network_0_fchan_egress1370 | Beginning channel traversal for flit 6 with delay 1.
29 | network_0/network_0_fchan_egress1779 | Beginning channel traversal for flit 2 with delay 1.
29 | network_0/network_0_fchan_egress1795 | Beginning channel traversal for flit 8 with delay 1.
29 | network_0/network_0_fchan_egress1810 | Beginning channel traversal for flit 7 with delay 1.
29 | network_0/network_0_fchan_egress1978 | Beginning channel traversal for flit 1 with delay 1.
29 | network_0/network_0_fchan_egress2440 | Beginning channel traversal for flit 4 with delay 1.
29 | network_0/network_0_fchan_egress3886 | Beginning channel traversal for flit 5 with delay 1.
29 | network_0/network_0_fchan_egress1038 | Completed channel traversal for flit 10.
29 | network_0/network_0_fchan_egress1209 | Completed channel traversal for flit 3.
29 | network_0/network_0_fchan_egress1370 | Completed channel traversal for flit 6.
29 | network_0/network_0_fchan_egress1779 | Completed channel traversal for flit 2.
29 | network_0/network_0_fchan_egress1795 | Completed channel traversal for flit 8.
29 | network_0/network_0_fchan_egress1810 | Completed channel traversal for flit 7.
29 | network_0/network_0_fchan_egress1978 | Completed channel traversal for flit 1.
29 | network_0/network_0_fchan_egress2440 | Completed channel traversal for flit 4.
29 | network_0/network_0_fchan_egress3886 | Completed channel traversal for flit 5.
30 | node1038 | Ejecting flit 10 (packet 10) from VC 0.
30 | node1209 | Ejecting flit 3 (packet 3) from VC 0.
30 | node1370 | Ejecting flit 6 (packet 6) from VC 0.
30 | node1779 | Ejecting flit 2 (packet 2) from VC 0.
30 | node1795 | Ejecting flit 8 (packet 8) from VC 0.
30 | node1810 | Ejecting flit 7 (packet 7) from VC 0.
30 | node1978 | Ejecting flit 1 (packet 1) from VC 0.
30 | node2440 | Ejecting flit 4 (packet 4) from VC 0.
30 | node3886 | Ejecting flit 5 (packet 5) from VC 0.
30 | node1038 | Injecting credit for VC 0 into subnet 0.
30 | node1038 | Retiring flit 10 (packet 10, src = 195, dest = 1038, hops = 7, flat = 30).
30 | node1038 | Retiring packet 10 (plat = 30, nlat = 30, frag = 0, src = 195, dest = 1038).
30 | node1209 | Injecting credit for VC 0 into subnet 0.
30 | node1209 | Retiring flit 3 (packet 3, src = 102, dest = 1209, hops = 7, flat = 30).
30 | node1209 | Retiring packet 3 (plat = 30, nlat = 30, frag = 0, src = 102, dest = 1209).
30 | node1370 | Injecting credit for VC 0 into subnet 0.
30 | node1370 | Retiring flit 6 (packet 6, src = 131, dest = 1370, hops = 7, flat = 30).
30 | node1370 | Retiring packet 6 (plat = 30, nlat = 30, frag = 0, src = 131, dest = 1370).
30 | node1779 | Injecting credit for VC 0 into subnet 0.
30 | node1779 | Retiring flit 2 (packet 2, src = 84, dest = 1779, hops = 7, flat = 30).
30 | node1779 | Retiring packet 2 (plat = 30, nlat = 30, frag = 0, src = 84, dest = 1779).
30 | node1795 | Injecting credit for VC 0 into subnet 0.
30 | node1795 | Retiring flit 8 (packet 8, src = 161, dest = 1795, hops = 7, flat = 30).
30 | node1795 | Retiring packet 8 (plat = 30, nlat = 30, frag = 0, src = 161, dest = 1795).
30 | node1810 | Injecting credit for VC 0 into subnet 0.
30 | node1810 | Retiring flit 7 (packet 7, src = 136, dest = 1810, hops = 7, flat = 30).
30 | node1810 | Retiring packet 7 (plat = 30, nlat = 30, frag = 0, src = 136, dest = 1810).
30 | node1978 | Injecting credit for VC 0 into subnet 0.
30 | node1978 | Retiring flit 1 (packet 1, src = 77, dest = 1978, hops = 7, flat = 30).
30 | node1978 | Retiring packet 1 (plat = 30, nlat = 30, frag = 0, src = 77, dest = 1978).
30 | node2440 | Injecting credit for VC 0 into subnet 0.
30 | node2440 | Retiring flit 4 (packet 4, src = 119, dest = 2440, hops = 7, flat = 30).
30 | node2440 | Retiring packet 4 (plat = 30, nlat = 30, frag = 0, src = 119, dest = 2440).
30 | node3886 | Injecting credit for VC 0 into subnet 0.
30 | node3886 | Retiring flit 5 (packet 5, src = 121, dest = 3886, hops = 7, flat = 30).
30 | node3886 | Retiring packet 5 (plat = 30, nlat = 30, frag = 0, src = 121, dest = 3886).
Class 0:
Packet latency average = 29.0065
	minimum = 6
	maximum = 35
Network latency average = 29.0065
	minimum = 6
	maximum = 35
Slowest packet = 33700
Flit latency average = 29.0065
	minimum = 6
	maximum = 35
Slowest flit = 33700
Fragmentation average = 0
	minimum = 0
	maximum = 0
Injected packet rate average = 0.0500061
	minimum = 0.028 (at node 1531)
	maximum = 0.081 (at node 3942)
Accepted packet rate average = 0.048572
	minimum = 0.026 (at node 1349)
	maximum = 0.073 (at node 1478)
Injected flit rate average = 0.0500061
	minimum = 0.028 (at node 1531)
	maximum = 0.081 (at node 3942)
Accepted flit rate average= 0.048572
	minimum = 0.026 (at node 1349)
	maximum = 0.073 (at node 1478)
Injected packet length average = 1
Accepted packet length average = 1
Total in-flight flits = 5874 (0 measured)
latency change    = 1
throughput change = 1
Class 0:
Packet latency average = 29.0222
	minimum = 6
	maximum = 36
Network latency average = 29.0222
	minimum = 6
	maximum = 36
Slowest packet = 325376
Flit latency average = 29.0222
	minimum = 6
	maximum = 36
Slowest flit = 325376
Fragmentation average = 0
	minimum = 0
	maximum = 0
Injected packet rate average = 0.0499756
	minimum = 0.031 (at node 152)
	maximum = 0.0715 (at node 2521)
Accepted packet rate average = 0.0492657
	minimum = 0.0315 (at node 2983)
	maximum = 0.0695 (at node 84)
Injected flit rate average = 0.0499756
	minimum = 0.031 (at node 152)
	maximum = 0.0715 (at node 2521)
Accepted flit rate average= 0.0492657
	minimum = 0.0315 (at node 2983)
	maximum = 0.0695 (at node 84)
Injected packet length average = 1
Accepted packet length average = 1
Total in-flight flits = 5815 (0 measured)
latency change    = 0.000542829
throughput change = 0.0140813
Class 0:
Packet latency average = 29.0191
	minimum = 6
	maximum = 35
Network latency average = 29.0191
	minimum = 6
	maximum = 35
Slowest packet = 490828
Flit latency average = 29.0191
	minimum = 6
	maximum = 35
Slowest flit = 490828
Fragmentation average = 0
	minimum = 0
	maximum = 0
Injected packet rate average = 0.0500298
	minimum = 0.028 (at node 622)
	maximum = 0.076 (at node 696)
Accepted packet rate average = 0.0500054
	minimum = 0.028 (at node 536)
	maximum = 0.076 (at node 2319)
Injected flit rate average = 0.0500298
	minimum = 0.028 (at node 622)
	maximum = 0.076 (at node 696)
Accepted flit rate average= 0.0500054
	minimum = 0.028 (at node 536)
	maximum = 0.076 (at node 2319)
Injected packet length average = 1
Accepted packet length average = 1
Total in-flight flits = 5915 (0 measured)
latency change    = 0.000109844
throughput change = 0.0147909
Warmed up ...Time used is 3000 cycles
Class 0:
Packet latency average = 28.9936
	minimum = 6
	maximum = 36
Network latency average = 28.9936
	minimum = 6
	maximum = 36
Slowest packet = 645394
Flit latency average = 29.0063
	minimum = 6
	maximum = 36
Slowest flit = 645394
Fragmentation average = 0
	minimum = 0
	maximum = 0
Injected packet rate average = 0.0499121
	minimum = 0.028 (at node 3243)
	maximum = 0.074 (at node 3373)
Accepted packet rate average = 0.0499382
	minimum = 0.023 (at node 718)
	maximum = 0.079 (at node 2271)
Injected flit rate average = 0.0499121
	minimum = 0.028 (at node 3243)
	maximum = 0.074 (at node 3373)
Accepted flit rate average= 0.0499382
	minimum = 0.023 (at node 718)
	maximum = 0.079 (at node 2271)
Injected packet length average = 1
Accepted packet length average = 1
Total in-flight flits = 5808 (5808 measured)
latency change    = 0.000877061
throughput change = 0.00134443
Class 0:
Packet latency average = 29.0092
	minimum = 6
	maximum = 36
Network latency average = 29.0092
	minimum = 6
	maximum = 36
Slowest packet = 645394
Flit latency average = 29.0153
	minimum = 6
	maximum = 36
Slowest flit = 645394
Fragmentation average = 0
	minimum = 0
	maximum = 0
Injected packet rate average = 0.0499951
	minimum = 0.034 (at node 3511)
	maximum = 0.071 (at node 2892)
Accepted packet rate average = 0.0500068
	minimum = 0.0305 (at node 1093)
	maximum = 0.0725 (at node 573)
Injected flit rate average = 0.0499951
	minimum = 0.034 (at node 3511)
	maximum = 0.071 (at node 2892)
Accepted flit rate average= 0.0500068
	minimum = 0.0305 (at node 1093)
	maximum = 0.0725 (at node 573)
Injected packet length average = 1
Accepted packet length average = 1
Total in-flight flits = 5819 (5819 measured)
latency change    = 0.000537327
throughput change = 0.00137188
Class 0:
Packet latency average = 29.0087
	minimum = 6
	maximum = 36
Network latency average = 29.0087
	minimum = 6
	maximum = 36
Slowest packet = 645394
Flit latency average = 29.0127
	minimum = 6
	maximum = 36
Slowest flit = 645394
Fragmentation average = 0
	minimum = 0
	maximum = 0
Injected packet rate average = 0.050061
	minimum = 0.0353333 (at node 1109)
	maximum = 0.0643333 (at node 283)
Accepted packet rate average = 0.0500547
	minimum = 0.0356667 (at node 1093)
	maximum = 0.0666667 (at node 2998)
Injected flit rate average = 0.050061
	minimum = 0.0353333 (at node 1109)
	maximum = 0.0643333 (at node 283)
Accepted flit rate average= 0.0500547
	minimum = 0.0356667 (at node 1093)
	maximum = 0.0666667 (at node 2998)
Injected packet length average = 1
Accepted packet length average = 1
Total in-flight flits = 5992 (5992 measured)
latency change    = 1.88258e-05
throughput change = 0.000955986
Draining all recorded packets ...
Draining remaining packets ...
Time taken is 6068 cycles
====== Overall Traffic Statistics ======
====== Traffic class 0 ======
Packet latency average = 29.0126 (1 samples)
	minimum = 6 (1 samples)
	maximum = 36 (1 samples)
Network latency average = 29.0126 (1 samples)
	minimum = 6 (1 samples)
	maximum = 36 (1 samples)
Flit latency average = 29.0163 (1 samples)
	minimum = 6 (1 samples)
	maximum = 36 (1 samples)
Fragmentation average = 0 (1 samples)
	minimum = 0 (1 samples)
	maximum = 0 (1 samples)
Injected packet rate average = 0.050061 (1 samples)
	minimum = 0.0353333 (1 samples)
	maximum = 0.0643333 (1 samples)
Accepted packet rate average = 0.0500547 (1 samples)
	minimum = 0.0356667 (1 samples)
	maximum = 0.0666667 (1 samples)
Injected flit rate average = 0.050061 (1 samples)
	minimum = 0.0353333 (1 samples)
	maximum = 0.0643333 (1 samples)
Accepted flit rate average = 0.0500547 (1 samples)
	minimum = 0.0356667 (1 samples)
	maximum = 0.0666667 (1 samples)
Injected packet size average = 1 (1 samples)
Accepted packet size average = 1 (1 samples)
Hops average = 6.71219 (1 samples)
Total run time 188.81
